 INFO
nunit      1    1    1
unit   cell
celltype   primcell
shape   parapipedal
 END_INFO
 DIM-GROUP
           3           1
 PRIMVEC
    5.3284524740    0.0000000000    0.0000000000
    0.0000000000    9.2656351050    0.0000000000
   -1.9148313630    0.0000000000   10.2491422900
 CONVVEC
    5.3284524740    0.0000000000    0.0000000000
    0.0000000000    9.2656351050    0.0000000000
   -1.9148313630    0.0000000000   10.2491422900
 PRIMCOORD
          44           1
 19      0.0000000000     4.5452405130     0.0000000000     0.0000000000    -0.0000589200     0.0000000000
 19      2.6642271730     0.0509572510     0.0000000000     0.0000000000    -0.0000374100     0.0000000000
 12     -0.9574145390     0.0567075760     5.1245698870     0.0000000000     0.0000772900     0.0000000000
 12     -0.9574145390     6.1814487330     5.1245698870     0.0000000000     0.0000379200     0.0000000000
 12      1.7068126180     4.5945814710     5.1245698870     0.0000000000    -0.0000026200     0.0000000000
 12      1.7068126180     7.7413384300     5.1245698870     0.0000000000     0.0000610600     0.0000000000
 12      1.7068126180     1.5799710000     5.1245698870     0.0000000000    -0.0000644500     0.0000000000
 14      0.0399714960     1.5122831080     2.3075154190     0.0000159500    -0.0000048300     0.0000188900
 14      3.3736537240     1.5122831080     7.9416246720    -0.0000159500    -0.0000048300    -0.0000188900
 14      3.5168417300     7.7294381500     7.8641587070     0.0000553100     0.0000146800     0.0000400200
 14     -0.1032162560     7.7294381500     2.3849810760    -0.0000553100     0.0000146800    -0.0000400200
 14      2.5606589300     6.1765797940     2.3702241990    -0.0000294600    -0.0000013700     0.0000090100
 14      0.8529663050     6.1765797940     7.8789155840     0.0000294600    -0.0000013700    -0.0000090100
 13      0.7070661380     3.0643094280     7.9115758710    -0.0000097000     0.0000184200    -0.0000864600
 13      2.7065595990     3.0643094280     2.3375637590     0.0000097000     0.0000184200     0.0000864600
  8     -0.0146026920     1.4611794020     3.9364978880     0.0000428700     0.0000389500     0.0000446000
  8      3.4282280460     1.4611794020     6.3126425100    -0.0000428700     0.0000389500    -0.0000446000
  8      3.4970593430     7.7328031350     6.2435911190     0.0001318900    -0.0000046900     0.0000280400
  8     -0.0834338500     7.7328031350     4.0055489620    -0.0001318900    -0.0000046900    -0.0000280400
  8      2.5893786940     6.2059611870     3.9986093660    -0.0000386000     0.0000059800     0.0000090300
  8      0.8242463300     6.2059611870     6.2505307150     0.0000386000     0.0000059800    -0.0000090300
  8      0.7701308030     3.0880671040     6.1645098630     0.0000158500    -0.0000270300    -0.0001042400
  8      2.6434947010     3.0880671040     4.0846293060    -0.0000158500    -0.0000270300     0.0001042400
  8      1.5161879530     1.9000085720     1.7307247350     0.0000495600    -0.0000924000     0.0000285500
  8      1.8974375560     1.9000085720     8.5184144340    -0.0000495600    -0.0000924000    -0.0000285500
  8     -0.3037363510     9.2316632150     1.7393062370    -0.0000587100     0.0000299800    -0.0000012300
  8      3.7173618590     9.2316632150     8.5098335370     0.0000587100     0.0000299800     0.0000012300
  8      2.0926455230     7.1314568890     8.4641136400     0.0000634900     0.0000089300     0.0000265800
  8      1.3209800030     7.1314568890     1.7850262980    -0.0000634900     0.0000089300    -0.0000265800
  8      3.9777854380     6.8280860630     1.7741859360    -0.0000763800     0.0000536600    -0.0000674700
  8     -0.5641601240     6.8280860630     8.4749538480     0.0000763800     0.0000536600     0.0000674700
  8      2.3756170930     4.7015566810     1.7224311690    -0.0000492000     0.0000138700    -0.0000440900
  8      1.0380080160     4.7015566810     8.5267084610     0.0000492000     0.0000138700     0.0000440900
  8     -0.8518784060     2.5399263380     8.5611336300    -0.0000587600     0.0000255600    -0.0000799500
  8      4.2655039320     2.5399263380     1.6880063080     0.0000587600     0.0000255600     0.0000799500
  8     -0.0306653840     4.7404529280     4.0324148060    -0.0000928800     0.0000073600     0.0000749800
  8      3.4442905610     4.7404529280     6.2167252860     0.0000928800     0.0000073600    -0.0000749800
  8      2.6107300890     9.2616214090     4.0928208600     0.0000187700    -0.0000367000    -0.0000212700
  8      0.8028956200     9.2616214090     6.1563189240    -0.0000187700    -0.0000367000     0.0000212700
  1     -0.0221219180     4.5629047720     3.0827350550    -0.0000606100    -0.0000460700     0.0000176800
  1      3.4357474520     4.5629047720     7.1664050360     0.0000606100    -0.0000460700    -0.0000176800
  1      2.5793926420     0.1239651200     3.1353354640    -0.0000588200    -0.0000245900    -0.0000602700
  1      0.8342327530     0.1239651200     7.1138043190     0.0000588200    -0.0000245900     0.0000602700
 26     -0.9574145390     3.1091024600     5.1245698870     0.0000000000     0.0000276900     0.0000000000
 CONVCOORD
          44           1
 19      0.0000000000     4.5452405130     0.0000000000
 19      2.6642271730     0.0509572510     0.0000000000
 12     -0.9574145390     0.0567075760     5.1245698870
 12     -0.9574145390     6.1814487330     5.1245698870
 12      1.7068126180     4.5945814710     5.1245698870
 12      1.7068126180     7.7413384300     5.1245698870
 12      1.7068126180     1.5799710000     5.1245698870
 14      0.0399714960     1.5122831080     2.3075154190
 14      3.3736537240     1.5122831080     7.9416246720
 14      3.5168417300     7.7294381500     7.8641587070
 14     -0.1032162560     7.7294381500     2.3849810760
 14      2.5606589300     6.1765797940     2.3702241990
 14      0.8529663050     6.1765797940     7.8789155840
 13      0.7070661380     3.0643094280     7.9115758710
 13      2.7065595990     3.0643094280     2.3375637590
  8     -0.0146026920     1.4611794020     3.9364978880
  8      3.4282280460     1.4611794020     6.3126425100
  8      3.4970593430     7.7328031350     6.2435911190
  8     -0.0834338500     7.7328031350     4.0055489620
  8      2.5893786940     6.2059611870     3.9986093660
  8      0.8242463300     6.2059611870     6.2505307150
  8      0.7701308030     3.0880671040     6.1645098630
  8      2.6434947010     3.0880671040     4.0846293060
  8      1.5161879530     1.9000085720     1.7307247350
  8      1.8974375560     1.9000085720     8.5184144340
  8     -0.3037363510     9.2316632150     1.7393062370
  8      3.7173618590     9.2316632150     8.5098335370
  8      2.0926455230     7.1314568890     8.4641136400
  8      1.3209800030     7.1314568890     1.7850262980
  8      3.9777854380     6.8280860630     1.7741859360
  8     -0.5641601240     6.8280860630     8.4749538480
  8      2.3756170930     4.7015566810     1.7224311690
  8      1.0380080160     4.7015566810     8.5267084610
  8     -0.8518784060     2.5399263380     8.5611336300
  8      4.2655039320     2.5399263380     1.6880063080
  8     -0.0306653840     4.7404529280     4.0324148060
  8      3.4442905610     4.7404529280     6.2167252860
  8      2.6107300890     9.2616214090     4.0928208600
  8      0.8028956200     9.2616214090     6.1563189240
  1     -0.0221219180     4.5629047720     3.0827350550
  1      3.4357474520     4.5629047720     7.1664050360
  1      2.5793926420     0.1239651200     3.1353354640
  1      0.8342327530     0.1239651200     7.1138043190
 26     -0.9574145390     3.1091024600     5.1245698870
 RECIP-PRIMVEC
    0.1876717499   -0.0000000000    0.0350624221

    0.0000000000    0.1079256833   -0.0000000000

    0.0000000000    0.0000000000    0.0975691401

 RECIP-CONVVEC
    0.1876717499   -0.0000000000    0.0350624221

    0.0000000000    0.1079256833   -0.0000000000

    0.0000000000    0.0000000000    0.0975691401

 WIGNER-SEITZ-PRIMCELL
           4
 -0.2664226E+01  0.4632818E+01 -0.4805690E+01  -0.3159978E+00 -0.1983655E-15 -0.9487599E+00
 -0.7493949E+00  0.4632818E+01 -0.5443452E+01  -0.3159978E+00 -0.1983655E-15 -0.9487599E+00
 -0.7493949E+00 -0.4632818E+01 -0.5443452E+01  -0.3159978E+00 -0.1983655E-15 -0.9487599E+00
 -0.2664226E+01 -0.4632818E+01 -0.4805690E+01  -0.3159978E+00 -0.1983655E-15 -0.9487599E+00
           4
 -0.2664226E+01  0.4632818E+01  0.4805690E+01  -0.1000000E+01 -0.4792863E-16  0.4620452E-16
 -0.2664226E+01  0.4632818E+01 -0.4805690E+01  -0.1000000E+01 -0.4792863E-16  0.4620452E-16
 -0.2664226E+01 -0.4632818E+01 -0.4805690E+01  -0.1000000E+01 -0.4792863E-16  0.4620452E-16
 -0.2664226E+01 -0.4632818E+01  0.4805690E+01  -0.1000000E+01 -0.4792863E-16  0.4620452E-16
           6
  0.7493949E+00 -0.4632818E+01  0.5443452E+01  -0.1726464E-16 -0.1000000E+01  0.5414135E-16
 -0.2664226E+01 -0.4632818E+01  0.4805690E+01  -0.1726464E-16 -0.1000000E+01  0.5414135E-16
 -0.2664226E+01 -0.4632818E+01 -0.4805690E+01  -0.1726464E-16 -0.1000000E+01  0.5414135E-16
 -0.7493949E+00 -0.4632818E+01 -0.5443452E+01  -0.1726464E-16 -0.1000000E+01  0.5414135E-16
  0.2664226E+01 -0.4632818E+01 -0.4805690E+01  -0.1726464E-16 -0.1000000E+01  0.5414135E-16
  0.2664226E+01 -0.4632818E+01  0.4805690E+01  -0.1726464E-16 -0.1000000E+01  0.5414135E-16
           4
  0.2664226E+01  0.4632818E+01 -0.4805690E+01   0.1836508E+00  0.0000000E+00 -0.9829916E+00
  0.2664226E+01 -0.4632818E+01 -0.4805690E+01   0.1836508E+00  0.0000000E+00 -0.9829916E+00
 -0.7493949E+00 -0.4632818E+01 -0.5443452E+01   0.1836508E+00  0.0000000E+00 -0.9829916E+00
 -0.7493949E+00  0.4632818E+01 -0.5443452E+01   0.1836508E+00  0.0000000E+00 -0.9829916E+00
           4
  0.7493949E+00  0.4632818E+01  0.5443452E+01  -0.1836508E+00 -0.1367832E-16  0.9829916E+00
 -0.2664226E+01  0.4632818E+01  0.4805690E+01  -0.1836508E+00 -0.1367832E-16  0.9829916E+00
 -0.2664226E+01 -0.4632818E+01  0.4805690E+01  -0.1836508E+00 -0.1367832E-16  0.9829916E+00
  0.7493949E+00 -0.4632818E+01  0.5443452E+01  -0.1836508E+00 -0.1367832E-16  0.9829916E+00
           6
  0.2664226E+01  0.4632818E+01 -0.4805690E+01   0.1666860E-15  0.1000000E+01  0.5227220E-15
 -0.7493949E+00  0.4632818E+01 -0.5443452E+01   0.1666860E-15  0.1000000E+01  0.5227220E-15
 -0.2664226E+01  0.4632818E+01 -0.4805690E+01   0.1666860E-15  0.1000000E+01  0.5227220E-15
 -0.2664226E+01  0.4632818E+01  0.4805690E+01   0.1666860E-15  0.1000000E+01  0.5227220E-15
  0.7493949E+00  0.4632818E+01  0.5443452E+01   0.1666860E-15  0.1000000E+01  0.5227220E-15
  0.2664226E+01  0.4632818E+01  0.4805690E+01   0.1666860E-15  0.1000000E+01  0.5227220E-15
           4
  0.2664226E+01  0.4632818E+01  0.4805690E+01   0.1000000E+01  0.4792863E-16  0.4429039E-32
  0.2664226E+01 -0.4632818E+01  0.4805690E+01   0.1000000E+01  0.4792863E-16  0.4429039E-32
  0.2664226E+01 -0.4632818E+01 -0.4805690E+01   0.1000000E+01  0.4792863E-16  0.4429039E-32
  0.2664226E+01  0.4632818E+01 -0.4805690E+01   0.1000000E+01  0.4792863E-16  0.4429039E-32
           4
  0.7493949E+00 -0.4632818E+01  0.5443452E+01   0.3159978E+00  0.6855721E-16  0.9487599E+00
  0.2664226E+01 -0.4632818E+01  0.4805690E+01   0.3159978E+00  0.6855721E-16  0.9487599E+00
  0.2664226E+01  0.4632818E+01  0.4805690E+01   0.3159978E+00  0.6855721E-16  0.9487599E+00
  0.7493949E+00  0.4632818E+01  0.5443452E+01   0.3159978E+00  0.6855721E-16  0.9487599E+00
 WIGNER-SEITZ-PRIMCELL_END
 WIGNER-SEITZ-CONVCELL
           4
 -0.2664226E+01  0.4632818E+01 -0.4805690E+01  -0.3159978E+00 -0.1983655E-15 -0.9487599E+00
 -0.7493949E+00  0.4632818E+01 -0.5443452E+01  -0.3159978E+00 -0.1983655E-15 -0.9487599E+00
 -0.7493949E+00 -0.4632818E+01 -0.5443452E+01  -0.3159978E+00 -0.1983655E-15 -0.9487599E+00
 -0.2664226E+01 -0.4632818E+01 -0.4805690E+01  -0.3159978E+00 -0.1983655E-15 -0.9487599E+00
           4
 -0.2664226E+01  0.4632818E+01  0.4805690E+01  -0.1000000E+01 -0.4792863E-16  0.4620452E-16
 -0.2664226E+01  0.4632818E+01 -0.4805690E+01  -0.1000000E+01 -0.4792863E-16  0.4620452E-16
 -0.2664226E+01 -0.4632818E+01 -0.4805690E+01  -0.1000000E+01 -0.4792863E-16  0.4620452E-16
 -0.2664226E+01 -0.4632818E+01  0.4805690E+01  -0.1000000E+01 -0.4792863E-16  0.4620452E-16
           6
  0.7493949E+00 -0.4632818E+01  0.5443452E+01  -0.1726464E-16 -0.1000000E+01  0.5414135E-16
 -0.2664226E+01 -0.4632818E+01  0.4805690E+01  -0.1726464E-16 -0.1000000E+01  0.5414135E-16
 -0.2664226E+01 -0.4632818E+01 -0.4805690E+01  -0.1726464E-16 -0.1000000E+01  0.5414135E-16
 -0.7493949E+00 -0.4632818E+01 -0.5443452E+01  -0.1726464E-16 -0.1000000E+01  0.5414135E-16
  0.2664226E+01 -0.4632818E+01 -0.4805690E+01  -0.1726464E-16 -0.1000000E+01  0.5414135E-16
  0.2664226E+01 -0.4632818E+01  0.4805690E+01  -0.1726464E-16 -0.1000000E+01  0.5414135E-16
           4
  0.2664226E+01  0.4632818E+01 -0.4805690E+01   0.1836508E+00  0.0000000E+00 -0.9829916E+00
  0.2664226E+01 -0.4632818E+01 -0.4805690E+01   0.1836508E+00  0.0000000E+00 -0.9829916E+00
 -0.7493949E+00 -0.4632818E+01 -0.5443452E+01   0.1836508E+00  0.0000000E+00 -0.9829916E+00
 -0.7493949E+00  0.4632818E+01 -0.5443452E+01   0.1836508E+00  0.0000000E+00 -0.9829916E+00
           4
  0.7493949E+00  0.4632818E+01  0.5443452E+01  -0.1836508E+00 -0.1367832E-16  0.9829916E+00
 -0.2664226E+01  0.4632818E+01  0.4805690E+01  -0.1836508E+00 -0.1367832E-16  0.9829916E+00
 -0.2664226E+01 -0.4632818E+01  0.4805690E+01  -0.1836508E+00 -0.1367832E-16  0.9829916E+00
  0.7493949E+00 -0.4632818E+01  0.5443452E+01  -0.1836508E+00 -0.1367832E-16  0.9829916E+00
           6
  0.2664226E+01  0.4632818E+01 -0.4805690E+01   0.1666860E-15  0.1000000E+01  0.5227220E-15
 -0.7493949E+00  0.4632818E+01 -0.5443452E+01   0.1666860E-15  0.1000000E+01  0.5227220E-15
 -0.2664226E+01  0.4632818E+01 -0.4805690E+01   0.1666860E-15  0.1000000E+01  0.5227220E-15
 -0.2664226E+01  0.4632818E+01  0.4805690E+01   0.1666860E-15  0.1000000E+01  0.5227220E-15
  0.7493949E+00  0.4632818E+01  0.5443452E+01   0.1666860E-15  0.1000000E+01  0.5227220E-15
  0.2664226E+01  0.4632818E+01  0.4805690E+01   0.1666860E-15  0.1000000E+01  0.5227220E-15
           4
  0.2664226E+01  0.4632818E+01  0.4805690E+01   0.1000000E+01  0.4792863E-16  0.4429039E-32
  0.2664226E+01 -0.4632818E+01  0.4805690E+01   0.1000000E+01  0.4792863E-16  0.4429039E-32
  0.2664226E+01 -0.4632818E+01 -0.4805690E+01   0.1000000E+01  0.4792863E-16  0.4429039E-32
  0.2664226E+01  0.4632818E+01 -0.4805690E+01   0.1000000E+01  0.4792863E-16  0.4429039E-32
           4
  0.7493949E+00 -0.4632818E+01  0.5443452E+01   0.3159978E+00  0.6855721E-16  0.9487599E+00
  0.2664226E+01 -0.4632818E+01  0.4805690E+01   0.3159978E+00  0.6855721E-16  0.9487599E+00
  0.2664226E+01  0.4632818E+01  0.4805690E+01   0.3159978E+00  0.6855721E-16  0.9487599E+00
  0.7493949E+00  0.4632818E+01  0.5443452E+01   0.3159978E+00  0.6855721E-16  0.9487599E+00
 WIGNER-SEITZ-CONVCELL_END
 BRILLOUIN-ZONE-PRIMCELL
           4
  0.9967489E-01  0.5396284E-01 -0.1372215E-01   0.9487599E+00  0.8154947E-16 -0.3159978E+00
  0.9967489E-01 -0.5396284E-01 -0.1372215E-01   0.9487599E+00  0.8154947E-16 -0.3159978E+00
  0.8799686E-01 -0.5396284E-01 -0.4878457E-01   0.9487599E+00  0.8154947E-16 -0.3159978E+00
  0.8799686E-01  0.5396284E-01 -0.4878457E-01   0.9487599E+00  0.8154947E-16 -0.3159978E+00
           4
 -0.8799686E-01 -0.5396284E-01 -0.4878457E-01   0.0000000E+00  0.0000000E+00 -0.1000000E+01
 -0.8799686E-01  0.5396284E-01 -0.4878457E-01   0.0000000E+00  0.0000000E+00 -0.1000000E+01
  0.8799686E-01  0.5396284E-01 -0.4878457E-01   0.0000000E+00  0.0000000E+00 -0.1000000E+01
  0.8799686E-01 -0.5396284E-01 -0.4878457E-01   0.0000000E+00  0.0000000E+00 -0.1000000E+01
           6
  0.8799686E-01 -0.5396284E-01  0.4878457E-01   0.0000000E+00 -0.1000000E+01  0.2811196E-15
 -0.8799686E-01 -0.5396284E-01  0.4878457E-01   0.0000000E+00 -0.1000000E+01  0.2811196E-15
 -0.9967489E-01 -0.5396284E-01  0.1372215E-01   0.0000000E+00 -0.1000000E+01  0.2811196E-15
 -0.8799686E-01 -0.5396284E-01 -0.4878457E-01   0.0000000E+00 -0.1000000E+01  0.2811196E-15
  0.8799686E-01 -0.5396284E-01 -0.4878457E-01   0.0000000E+00 -0.1000000E+01  0.2811196E-15
  0.9967489E-01 -0.5396284E-01 -0.1372215E-01   0.0000000E+00 -0.1000000E+01  0.2811196E-15
           4
  0.8799686E-01 -0.5396284E-01  0.4878457E-01   0.9829916E+00 -0.9075177E-16  0.1836508E+00
  0.9967489E-01 -0.5396284E-01 -0.1372215E-01   0.9829916E+00 -0.9075177E-16  0.1836508E+00
  0.9967489E-01  0.5396284E-01 -0.1372215E-01   0.9829916E+00 -0.9075177E-16  0.1836508E+00
  0.8799686E-01  0.5396284E-01  0.4878457E-01   0.9829916E+00 -0.9075177E-16  0.1836508E+00
           4
 -0.8799686E-01  0.5396284E-01 -0.4878457E-01  -0.9829916E+00 -0.9478941E-16 -0.1836508E+00
 -0.8799686E-01 -0.5396284E-01 -0.4878457E-01  -0.9829916E+00 -0.9478941E-16 -0.1836508E+00
 -0.9967489E-01 -0.5396284E-01  0.1372215E-01  -0.9829916E+00 -0.9478941E-16 -0.1836508E+00
 -0.9967489E-01  0.5396284E-01  0.1372215E-01  -0.9829916E+00 -0.9478941E-16 -0.1836508E+00
           6
  0.9967489E-01  0.5396284E-01 -0.1372215E-01   0.0000000E+00  0.1000000E+01 -0.0000000E+00
  0.8799686E-01  0.5396284E-01 -0.4878457E-01   0.0000000E+00  0.1000000E+01 -0.0000000E+00
 -0.8799686E-01  0.5396284E-01 -0.4878457E-01   0.0000000E+00  0.1000000E+01 -0.0000000E+00
 -0.9967489E-01  0.5396284E-01  0.1372215E-01   0.0000000E+00  0.1000000E+01 -0.0000000E+00
 -0.8799686E-01  0.5396284E-01  0.4878457E-01   0.0000000E+00  0.1000000E+01 -0.0000000E+00
  0.8799686E-01  0.5396284E-01  0.4878457E-01   0.0000000E+00  0.1000000E+01 -0.0000000E+00
           4
  0.8799686E-01 -0.5396284E-01  0.4878457E-01  -0.0000000E+00 -0.0000000E+00  0.1000000E+01
  0.8799686E-01  0.5396284E-01  0.4878457E-01  -0.0000000E+00 -0.0000000E+00  0.1000000E+01
 -0.8799686E-01  0.5396284E-01  0.4878457E-01  -0.0000000E+00 -0.0000000E+00  0.1000000E+01
 -0.8799686E-01 -0.5396284E-01  0.4878457E-01  -0.0000000E+00 -0.0000000E+00  0.1000000E+01
           4
 -0.9967489E-01  0.5396284E-01  0.1372215E-01  -0.9487599E+00  0.2854231E-15  0.3159978E+00
 -0.9967489E-01 -0.5396284E-01  0.1372215E-01  -0.9487599E+00  0.2854231E-15  0.3159978E+00
 -0.8799686E-01 -0.5396284E-01  0.4878457E-01  -0.9487599E+00  0.2854231E-15  0.3159978E+00
 -0.8799686E-01  0.5396284E-01  0.4878457E-01  -0.9487599E+00  0.2854231E-15  0.3159978E+00
 BRILLOUIN-ZONE-PRIMCELL_END
 BRILLOUIN-ZONE-CONVCELL
           4
  0.9967489E-01  0.5396284E-01 -0.1372215E-01   0.9487599E+00  0.8154947E-16 -0.3159978E+00
  0.9967489E-01 -0.5396284E-01 -0.1372215E-01   0.9487599E+00  0.8154947E-16 -0.3159978E+00
  0.8799686E-01 -0.5396284E-01 -0.4878457E-01   0.9487599E+00  0.8154947E-16 -0.3159978E+00
  0.8799686E-01  0.5396284E-01 -0.4878457E-01   0.9487599E+00  0.8154947E-16 -0.3159978E+00
           4
 -0.8799686E-01 -0.5396284E-01 -0.4878457E-01   0.0000000E+00  0.0000000E+00 -0.1000000E+01
 -0.8799686E-01  0.5396284E-01 -0.4878457E-01   0.0000000E+00  0.0000000E+00 -0.1000000E+01
  0.8799686E-01  0.5396284E-01 -0.4878457E-01   0.0000000E+00  0.0000000E+00 -0.1000000E+01
  0.8799686E-01 -0.5396284E-01 -0.4878457E-01   0.0000000E+00  0.0000000E+00 -0.1000000E+01
           6
  0.8799686E-01 -0.5396284E-01  0.4878457E-01   0.0000000E+00 -0.1000000E+01  0.2811196E-15
 -0.8799686E-01 -0.5396284E-01  0.4878457E-01   0.0000000E+00 -0.1000000E+01  0.2811196E-15
 -0.9967489E-01 -0.5396284E-01  0.1372215E-01   0.0000000E+00 -0.1000000E+01  0.2811196E-15
 -0.8799686E-01 -0.5396284E-01 -0.4878457E-01   0.0000000E+00 -0.1000000E+01  0.2811196E-15
  0.8799686E-01 -0.5396284E-01 -0.4878457E-01   0.0000000E+00 -0.1000000E+01  0.2811196E-15
  0.9967489E-01 -0.5396284E-01 -0.1372215E-01   0.0000000E+00 -0.1000000E+01  0.2811196E-15
           4
  0.8799686E-01 -0.5396284E-01  0.4878457E-01   0.9829916E+00 -0.9075177E-16  0.1836508E+00
  0.9967489E-01 -0.5396284E-01 -0.1372215E-01   0.9829916E+00 -0.9075177E-16  0.1836508E+00
  0.9967489E-01  0.5396284E-01 -0.1372215E-01   0.9829916E+00 -0.9075177E-16  0.1836508E+00
  0.8799686E-01  0.5396284E-01  0.4878457E-01   0.9829916E+00 -0.9075177E-16  0.1836508E+00
           4
 -0.8799686E-01  0.5396284E-01 -0.4878457E-01  -0.9829916E+00 -0.9478941E-16 -0.1836508E+00
 -0.8799686E-01 -0.5396284E-01 -0.4878457E-01  -0.9829916E+00 -0.9478941E-16 -0.1836508E+00
 -0.9967489E-01 -0.5396284E-01  0.1372215E-01  -0.9829916E+00 -0.9478941E-16 -0.1836508E+00
 -0.9967489E-01  0.5396284E-01  0.1372215E-01  -0.9829916E+00 -0.9478941E-16 -0.1836508E+00
           6
  0.9967489E-01  0.5396284E-01 -0.1372215E-01   0.0000000E+00  0.1000000E+01 -0.0000000E+00
  0.8799686E-01  0.5396284E-01 -0.4878457E-01   0.0000000E+00  0.1000000E+01 -0.0000000E+00
 -0.8799686E-01  0.5396284E-01 -0.4878457E-01   0.0000000E+00  0.1000000E+01 -0.0000000E+00
 -0.9967489E-01  0.5396284E-01  0.1372215E-01   0.0000000E+00  0.1000000E+01 -0.0000000E+00
 -0.8799686E-01  0.5396284E-01  0.4878457E-01   0.0000000E+00  0.1000000E+01 -0.0000000E+00
  0.8799686E-01  0.5396284E-01  0.4878457E-01   0.0000000E+00  0.1000000E+01 -0.0000000E+00
           4
  0.8799686E-01 -0.5396284E-01  0.4878457E-01  -0.0000000E+00 -0.0000000E+00  0.1000000E+01
  0.8799686E-01  0.5396284E-01  0.4878457E-01  -0.0000000E+00 -0.0000000E+00  0.1000000E+01
 -0.8799686E-01  0.5396284E-01  0.4878457E-01  -0.0000000E+00 -0.0000000E+00  0.1000000E+01
 -0.8799686E-01 -0.5396284E-01  0.4878457E-01  -0.0000000E+00 -0.0000000E+00  0.1000000E+01
           4
 -0.9967489E-01  0.5396284E-01  0.1372215E-01  -0.9487599E+00  0.2854231E-15  0.3159978E+00
 -0.9967489E-01 -0.5396284E-01  0.1372215E-01  -0.9487599E+00  0.2854231E-15  0.3159978E+00
 -0.8799686E-01 -0.5396284E-01  0.4878457E-01  -0.9487599E+00  0.2854231E-15  0.3159978E+00
 -0.8799686E-01  0.5396284E-01  0.4878457E-01  -0.9487599E+00  0.2854231E-15  0.3159978E+00
 BRILLOUIN-ZONE-CONVCELL_END
 ATOMS
   19    0.0000000000    4.5452405130    0.0000000000    0.0000000000   -0.0000589200    0.0000000000
   19    2.6642271730    0.0509572510    0.0000000000    0.0000000000   -0.0000374100    0.0000000000
   12   -0.9574145390    0.0567075760    5.1245698870    0.0000000000    0.0000772900    0.0000000000
   12   -0.9574145390    6.1814487330    5.1245698870    0.0000000000    0.0000379200    0.0000000000
   12    1.7068126180    4.5945814710    5.1245698870    0.0000000000   -0.0000026200    0.0000000000
   12    1.7068126180    7.7413384300    5.1245698870    0.0000000000    0.0000610600    0.0000000000
   12    1.7068126180    1.5799710000    5.1245698870    0.0000000000   -0.0000644500    0.0000000000
   14    0.0399714960    1.5122831080    2.3075154190    0.0000159500   -0.0000048300    0.0000188900
   14    3.3736537240    1.5122831080    7.9416246720   -0.0000159500   -0.0000048300   -0.0000188900
   14    3.5168417300    7.7294381500    7.8641587070    0.0000553100    0.0000146800    0.0000400200
   14   -0.1032162560    7.7294381500    2.3849810760   -0.0000553100    0.0000146800   -0.0000400200
   14    2.5606589300    6.1765797940    2.3702241990   -0.0000294600   -0.0000013700    0.0000090100
   14    0.8529663050    6.1765797940    7.8789155840    0.0000294600   -0.0000013700   -0.0000090100
   13    0.7070661380    3.0643094280    7.9115758710   -0.0000097000    0.0000184200   -0.0000864600
   13    2.7065595990    3.0643094280    2.3375637590    0.0000097000    0.0000184200    0.0000864600
    8   -0.0146026920    1.4611794020    3.9364978880    0.0000428700    0.0000389500    0.0000446000
    8    3.4282280460    1.4611794020    6.3126425100   -0.0000428700    0.0000389500   -0.0000446000
    8    3.4970593430    7.7328031350    6.2435911190    0.0001318900   -0.0000046900    0.0000280400
    8   -0.0834338500    7.7328031350    4.0055489620   -0.0001318900   -0.0000046900   -0.0000280400
    8    2.5893786940    6.2059611870    3.9986093660   -0.0000386000    0.0000059800    0.0000090300
    8    0.8242463300    6.2059611870    6.2505307150    0.0000386000    0.0000059800   -0.0000090300
    8    0.7701308030    3.0880671040    6.1645098630    0.0000158500   -0.0000270300   -0.0001042400
    8    2.6434947010    3.0880671040    4.0846293060   -0.0000158500   -0.0000270300    0.0001042400
    8    1.5161879530    1.9000085720    1.7307247350    0.0000495600   -0.0000924000    0.0000285500
    8    1.8974375560    1.9000085720    8.5184144340   -0.0000495600   -0.0000924000   -0.0000285500
    8   -0.3037363510    9.2316632150    1.7393062370   -0.0000587100    0.0000299800   -0.0000012300
    8    3.7173618590    9.2316632150    8.5098335370    0.0000587100    0.0000299800    0.0000012300
    8    2.0926455230    7.1314568890    8.4641136400    0.0000634900    0.0000089300    0.0000265800
    8    1.3209800030    7.1314568890    1.7850262980   -0.0000634900    0.0000089300   -0.0000265800
    8    3.9777854380    6.8280860630    1.7741859360   -0.0000763800    0.0000536600   -0.0000674700
    8   -0.5641601240    6.8280860630    8.4749538480    0.0000763800    0.0000536600    0.0000674700
    8    2.3756170930    4.7015566810    1.7224311690   -0.0000492000    0.0000138700   -0.0000440900
    8    1.0380080160    4.7015566810    8.5267084610    0.0000492000    0.0000138700    0.0000440900
    8   -0.8518784060    2.5399263380    8.5611336300   -0.0000587600    0.0000255600   -0.0000799500
    8    4.2655039320    2.5399263380    1.6880063080    0.0000587600    0.0000255600    0.0000799500
    8   -0.0306653840    4.7404529280    4.0324148060   -0.0000928800    0.0000073600    0.0000749800
    8    3.4442905610    4.7404529280    6.2167252860    0.0000928800    0.0000073600   -0.0000749800
    8    2.6107300890    9.2616214090    4.0928208600    0.0000187700   -0.0000367000   -0.0000212700
    8    0.8028956200    9.2616214090    6.1563189240   -0.0000187700   -0.0000367000    0.0000212700
    1   -0.0221219180    4.5629047720    3.0827350550   -0.0000606100   -0.0000460700    0.0000176800
    1    3.4357474520    4.5629047720    7.1664050360    0.0000606100   -0.0000460700   -0.0000176800
    1    2.5793926420    0.1239651200    3.1353354640   -0.0000588200   -0.0000245900   -0.0000602700
    1    0.8342327530    0.1239651200    7.1138043190    0.0000588200   -0.0000245900    0.0000602700
   26   -0.9574145390    3.1091024600    5.1245698870    0.0000000000    0.0000276900    0.0000000000
   19   -1.9148313630    4.5452405130   10.2491422900    0.0000000000   -0.0000589200    0.0000000000
   19    0.7493958100    0.0509572510   10.2491422900    0.0000000000   -0.0000374100    0.0000000000
   19    5.3284524740    4.5452405130    0.0000000000    0.0000000000   -0.0000589200    0.0000000000
   12    4.3710379350    0.0567075760    5.1245698870    0.0000000000    0.0000772900    0.0000000000
   12    4.3710379350    6.1814487330    5.1245698870    0.0000000000    0.0000379200    0.0000000000
   26    4.3710379350    3.1091024600    5.1245698870    0.0000000000    0.0000276900    0.0000000000
   19    3.4136211110    4.5452405130   10.2491422900    0.0000000000   -0.0000589200    0.0000000000
 FRAMES
1      0.0000000000    0.0000000000    0.0000000000      5.3284524740    0.0000000000    0.0000000000
1      0.0000000000    0.0000000000    0.0000000000      0.0000000000    9.2656351050    0.0000000000
1      0.0000000000    0.0000000000    0.0000000000     -1.9148313630    0.0000000000   10.2491422900
1     -1.9148313630    0.0000000000   10.2491422900      3.4136211110    0.0000000000   10.2491422900
1     -1.9148313630    0.0000000000   10.2491422900     -1.9148313630    9.2656351050   10.2491422900
1      0.0000000000    9.2656351050    0.0000000000      5.3284524740    9.2656351050    0.0000000000
1      0.0000000000    9.2656351050    0.0000000000     -1.9148313630    9.2656351050   10.2491422900
1     -1.9148313630    9.2656351050   10.2491422900      3.4136211110    9.2656351050   10.2491422900
1      5.3284524740    0.0000000000    0.0000000000      5.3284524740    9.2656351050    0.0000000000
1      5.3284524740    0.0000000000    0.0000000000      3.4136211110    0.0000000000   10.2491422900
1      3.4136211110    0.0000000000   10.2491422900      3.4136211110    9.2656351050   10.2491422900
1      5.3284524740    9.2656351050    0.0000000000      3.4136211110    9.2656351050   10.2491422900
