 INFO
nunit      1    1    1
unit   cell
celltype   primcell
shape   parapipedal
 END_INFO
 DIM-GROUP
           3           1
 PRIMVEC
    5.3256066180    0.0000000000    0.0000000000
    0.0000000000    9.2452584150    0.0000000000
   -1.8340856630    0.0000000000   10.2591367520
 CONVVEC
    5.3256066180    0.0000000000    0.0000000000
    0.0000000000    9.2452584150    0.0000000000
   -1.8340856630    0.0000000000   10.2591367520
 PRIMCOORD
          43           1
 19      0.0000000000     4.6392220940     0.0000000000     0.0000000000    -0.0004080200     0.0000000000
 19      2.6628039430     0.0299434890     0.0000000000     0.0000000000    -0.0000181900     0.0000000000
 12     -0.9170416550    -0.0706208120     5.1295671550     0.0000000000     0.0001703600     0.0000000000
 12     -0.9170416550     6.1216933980     5.1295671550     0.0000000000    -0.0006714100     0.0000000000
 12      1.7457622830     4.5311031600     5.1295671550     0.0000000000    -0.0000549200     0.0000000000
 12      1.7457622830     7.7672694510     5.1295671550     0.0000000000    -0.0003196400     0.0000000000
 14      0.0006480560     1.5193742460     2.2898811810    -0.0007013200    -0.0000545500     0.0001547100
 14      3.4908765620     1.5193742460     7.9692532830     0.0007013200    -0.0000545500    -0.0001547100
 14      3.5818034250     7.6963294470     7.8700888740     0.0002270100    -0.0002583900     0.0004606900
 14     -0.0902788030     7.6963294470     2.3890451180    -0.0002270100    -0.0002583900    -0.0004606900
 14      2.5662757300     6.1693793850     2.3697164600    -0.0002030900     0.0000916400     0.0005202800
 14      0.9252487050     6.1693793850     7.8894176860     0.0002030900     0.0000916400    -0.0005202800
 13      0.7718102880     3.0726392900     7.9515501610     0.0001910200     0.0003314100    -0.0006234800
 13      2.7197141230     3.0726392900     2.3075841490    -0.0001910200     0.0003314100     0.0006234800
  8     -0.1787098340     1.5728070750     3.9377030840     0.0000637100    -0.0002615600     0.0004187600
  8      3.6702342940     1.5728070750     6.3214309180    -0.0000637100    -0.0002615600    -0.0004187600
  8      3.5378367020     7.6241075100     6.2546144110     0.0006758600    -0.0002879600     0.0003588800
  8     -0.0463120010     7.6241075100     4.0045195910    -0.0006758600    -0.0002879600    -0.0003588800
  8      2.6107537150     6.1329342110     4.0011810800    -0.0000161500     0.0000900500     0.0007336800
  8      0.8807708530     6.1329342110     6.2579532190     0.0000161500     0.0000900500    -0.0007336800
  8      0.6272034920     3.1742778810     6.1979516380    -0.0002563800    -0.0003823100    -0.0004304000
  8      2.8643212880     3.1742778810     4.0611823640     0.0002563800    -0.0003823100     0.0004304000
  8      1.4834346830     1.9445827400     1.8156431450    -0.0003756800    -0.0001641600     0.0001756500
  8      2.0080897060     1.9445827400     8.4434903960     0.0003756800    -0.0001641600    -0.0001756500
  8     -0.2448815490     9.2091868620     1.7713050050     0.0005490100    -0.0000702700    -0.0004325100
  8      3.7364061420     9.2091868620     8.4878291510    -0.0005490100    -0.0000702700     0.0004325100
  8      2.1890137550     7.0630807340     8.4962741780    -0.0005386200     0.0007315600    -0.0002840400
  8      1.3025106560     7.0630807340     1.7628601320     0.0005386200     0.0007315600     0.0002840400
  8      3.9831909010     6.8095162840     1.7682849710    -0.0002929300    -0.0003599200     0.0000715600
  8     -0.4916662810     6.8095162840     8.4908494830     0.0002929300    -0.0003599200    -0.0000715600
  8      2.3885960040     4.6960216970     1.7048327670    -0.0000217400     0.0003833900    -0.0004595600
  8      1.1029282220     4.6960216970     8.5543016870     0.0000217400     0.0003833900     0.0004595600
  8     -0.7482875200     2.5163968540     8.6541741630     0.0003791900    -0.0001672600     0.0009003800
  8      4.2398123020     2.5163968540     1.6049598290    -0.0003791900    -0.0001672600    -0.0009003800
  8     -0.0255387460     4.5306861700     4.0913381640    -0.0003825600     0.0000700100    -0.0004157400
  8      3.5170634710     4.5306861700     6.1677961460     0.0003825600     0.0000700100     0.0004157400
  8      2.7556397310     9.0605394880     3.9867616290    -0.0000209500     0.0003921500     0.0002996100
  8      0.7358851540     9.0605394880     6.2723726810     0.0000209500     0.0003921500    -0.0002996100
  1     -0.1279823460     4.4851953910     3.1292502200    -0.0001068700     0.0005348300    -0.0003597900
  1      3.6195073790     4.4851953910     7.1298834740     0.0001068700     0.0005348300     0.0003597900
  1      2.3056868880     0.6704478010     3.8962469790    -0.0000301600     0.0000095300    -0.0000443600
  1      1.1858376230     0.6704478010     6.3628876380     0.0000301600     0.0000095300     0.0000443600
 22     -0.9170416550     2.8865857730     5.1295671550     0.0000000000     0.0000454600     0.0000000000
 CONVCOORD
          43           1
 19      0.0000000000     4.6392220940     0.0000000000
 19      2.6628039430     0.0299434890     0.0000000000
 12     -0.9170416550    -0.0706208120     5.1295671550
 12     -0.9170416550     6.1216933980     5.1295671550
 12      1.7457622830     4.5311031600     5.1295671550
 12      1.7457622830     7.7672694510     5.1295671550
 14      0.0006480560     1.5193742460     2.2898811810
 14      3.4908765620     1.5193742460     7.9692532830
 14      3.5818034250     7.6963294470     7.8700888740
 14     -0.0902788030     7.6963294470     2.3890451180
 14      2.5662757300     6.1693793850     2.3697164600
 14      0.9252487050     6.1693793850     7.8894176860
 13      0.7718102880     3.0726392900     7.9515501610
 13      2.7197141230     3.0726392900     2.3075841490
  8     -0.1787098340     1.5728070750     3.9377030840
  8      3.6702342940     1.5728070750     6.3214309180
  8      3.5378367020     7.6241075100     6.2546144110
  8     -0.0463120010     7.6241075100     4.0045195910
  8      2.6107537150     6.1329342110     4.0011810800
  8      0.8807708530     6.1329342110     6.2579532190
  8      0.6272034920     3.1742778810     6.1979516380
  8      2.8643212880     3.1742778810     4.0611823640
  8      1.4834346830     1.9445827400     1.8156431450
  8      2.0080897060     1.9445827400     8.4434903960
  8     -0.2448815490     9.2091868620     1.7713050050
  8      3.7364061420     9.2091868620     8.4878291510
  8      2.1890137550     7.0630807340     8.4962741780
  8      1.3025106560     7.0630807340     1.7628601320
  8      3.9831909010     6.8095162840     1.7682849710
  8     -0.4916662810     6.8095162840     8.4908494830
  8      2.3885960040     4.6960216970     1.7048327670
  8      1.1029282220     4.6960216970     8.5543016870
  8     -0.7482875200     2.5163968540     8.6541741630
  8      4.2398123020     2.5163968540     1.6049598290
  8     -0.0255387460     4.5306861700     4.0913381640
  8      3.5170634710     4.5306861700     6.1677961460
  8      2.7556397310     9.0605394880     3.9867616290
  8      0.7358851540     9.0605394880     6.2723726810
  1     -0.1279823460     4.4851953910     3.1292502200
  1      3.6195073790     4.4851953910     7.1298834740
  1      2.3056868880     0.6704478010     3.8962469790
  1      1.1858376230     0.6704478010     6.3628876380
 22     -0.9170416550     2.8865857730     5.1295671550
 RECIP-PRIMVEC
    0.1877720365   -0.0000000000    0.0335691012

    0.0000000000    0.1081635532   -0.0000000000

    0.0000000000    0.0000000000    0.0974740881

 RECIP-CONVVEC
    0.1877720365   -0.0000000000    0.0335691012

    0.0000000000    0.1081635532   -0.0000000000

    0.0000000000    0.0000000000    0.0974740881

 WIGNER-SEITZ-PRIMCELL
           4
 -0.2662803E+01 -0.4622629E+01 -0.4817469E+01  -0.3221851E+00 -0.9917295E-16 -0.9466767E+00
 -0.2662803E+01  0.4622629E+01 -0.4817469E+01  -0.3221851E+00 -0.9917295E-16 -0.9466767E+00
 -0.8287176E+00  0.4622629E+01 -0.5441668E+01  -0.3221851E+00 -0.9917295E-16 -0.9466767E+00
 -0.8287176E+00 -0.4622629E+01 -0.5441668E+01  -0.3221851E+00 -0.9917295E-16 -0.9466767E+00
           4
 -0.2662803E+01  0.4622629E+01 -0.4817469E+01  -0.1000000E+01 -0.4803427E-16  0.4427948E-32
 -0.2662803E+01 -0.4622629E+01 -0.4817469E+01  -0.1000000E+01 -0.4803427E-16  0.4427948E-32
 -0.2662803E+01 -0.4622629E+01  0.4817469E+01  -0.1000000E+01 -0.4803427E-16  0.4427948E-32
 -0.2662803E+01  0.4622629E+01  0.4817469E+01  -0.1000000E+01 -0.4803427E-16  0.4427948E-32
           6
  0.8287176E+00 -0.4622629E+01  0.5441668E+01   0.2708616E-15 -0.1000000E+01 -0.2112159E-15
 -0.2662803E+01 -0.4622629E+01  0.4817469E+01   0.2708616E-15 -0.1000000E+01 -0.2112159E-15
 -0.2662803E+01 -0.4622629E+01 -0.4817469E+01   0.2708616E-15 -0.1000000E+01 -0.2112159E-15
 -0.8287176E+00 -0.4622629E+01 -0.5441668E+01   0.2708616E-15 -0.1000000E+01 -0.2112159E-15
  0.2662803E+01 -0.4622629E+01 -0.4817469E+01   0.2708616E-15 -0.1000000E+01 -0.2112159E-15
  0.2662803E+01 -0.4622629E+01  0.4817469E+01   0.2708616E-15 -0.1000000E+01 -0.2112159E-15
           4
  0.2662803E+01  0.4622629E+01 -0.4817469E+01   0.1759856E+00  0.1083415E-15 -0.9843927E+00
  0.2662803E+01 -0.4622629E+01 -0.4817469E+01   0.1759856E+00  0.1083415E-15 -0.9843927E+00
 -0.8287176E+00 -0.4622629E+01 -0.5441668E+01   0.1759856E+00  0.1083415E-15 -0.9843927E+00
 -0.8287176E+00  0.4622629E+01 -0.5441668E+01   0.1759856E+00  0.1083415E-15 -0.9843927E+00
           4
 -0.2662803E+01  0.4622629E+01  0.4817469E+01  -0.1759856E+00 -0.1083415E-15  0.9843927E+00
 -0.2662803E+01 -0.4622629E+01  0.4817469E+01  -0.1759856E+00 -0.1083415E-15  0.9843927E+00
  0.8287176E+00 -0.4622629E+01  0.5441668E+01  -0.1759856E+00 -0.1083415E-15  0.9843927E+00
  0.8287176E+00  0.4622629E+01  0.5441668E+01  -0.1759856E+00 -0.1083415E-15  0.9843927E+00
           6
  0.2662803E+01  0.4622629E+01 -0.4817469E+01  -0.1667751E-15  0.1000000E+01  0.1068729E-14
 -0.8287176E+00  0.4622629E+01 -0.5441668E+01  -0.1667751E-15  0.1000000E+01  0.1068729E-14
 -0.2662803E+01  0.4622629E+01 -0.4817469E+01  -0.1667751E-15  0.1000000E+01  0.1068729E-14
 -0.2662803E+01  0.4622629E+01  0.4817469E+01  -0.1667751E-15  0.1000000E+01  0.1068729E-14
  0.8287176E+00  0.4622629E+01  0.5441668E+01  -0.1667751E-15  0.1000000E+01  0.1068729E-14
  0.2662803E+01  0.4622629E+01  0.4817469E+01  -0.1667751E-15  0.1000000E+01  0.1068729E-14
           4
  0.2662803E+01  0.4622629E+01  0.4817469E+01   0.1000000E+01  0.4803427E-16  0.4427948E-32
  0.2662803E+01 -0.4622629E+01  0.4817469E+01   0.1000000E+01  0.4803427E-16  0.4427948E-32
  0.2662803E+01 -0.4622629E+01 -0.4817469E+01   0.1000000E+01  0.4803427E-16  0.4427948E-32
  0.2662803E+01  0.4622629E+01 -0.4817469E+01   0.1000000E+01  0.4803427E-16  0.4427948E-32
           4
  0.8287176E+00 -0.4622629E+01  0.5441668E+01   0.3221851E+00 -0.3574362E-16  0.9466767E+00
  0.2662803E+01 -0.4622629E+01  0.4817469E+01   0.3221851E+00 -0.3574362E-16  0.9466767E+00
  0.2662803E+01  0.4622629E+01  0.4817469E+01   0.3221851E+00 -0.3574362E-16  0.9466767E+00
  0.8287176E+00  0.4622629E+01  0.5441668E+01   0.3221851E+00 -0.3574362E-16  0.9466767E+00
 WIGNER-SEITZ-PRIMCELL_END
 WIGNER-SEITZ-CONVCELL
           4
 -0.2662803E+01 -0.4622629E+01 -0.4817469E+01  -0.3221851E+00 -0.9917295E-16 -0.9466767E+00
 -0.2662803E+01  0.4622629E+01 -0.4817469E+01  -0.3221851E+00 -0.9917295E-16 -0.9466767E+00
 -0.8287176E+00  0.4622629E+01 -0.5441668E+01  -0.3221851E+00 -0.9917295E-16 -0.9466767E+00
 -0.8287176E+00 -0.4622629E+01 -0.5441668E+01  -0.3221851E+00 -0.9917295E-16 -0.9466767E+00
           4
 -0.2662803E+01  0.4622629E+01 -0.4817469E+01  -0.1000000E+01 -0.4803427E-16  0.4427948E-32
 -0.2662803E+01 -0.4622629E+01 -0.4817469E+01  -0.1000000E+01 -0.4803427E-16  0.4427948E-32
 -0.2662803E+01 -0.4622629E+01  0.4817469E+01  -0.1000000E+01 -0.4803427E-16  0.4427948E-32
 -0.2662803E+01  0.4622629E+01  0.4817469E+01  -0.1000000E+01 -0.4803427E-16  0.4427948E-32
           6
  0.8287176E+00 -0.4622629E+01  0.5441668E+01   0.2708616E-15 -0.1000000E+01 -0.2112159E-15
 -0.2662803E+01 -0.4622629E+01  0.4817469E+01   0.2708616E-15 -0.1000000E+01 -0.2112159E-15
 -0.2662803E+01 -0.4622629E+01 -0.4817469E+01   0.2708616E-15 -0.1000000E+01 -0.2112159E-15
 -0.8287176E+00 -0.4622629E+01 -0.5441668E+01   0.2708616E-15 -0.1000000E+01 -0.2112159E-15
  0.2662803E+01 -0.4622629E+01 -0.4817469E+01   0.2708616E-15 -0.1000000E+01 -0.2112159E-15
  0.2662803E+01 -0.4622629E+01  0.4817469E+01   0.2708616E-15 -0.1000000E+01 -0.2112159E-15
           4
  0.2662803E+01  0.4622629E+01 -0.4817469E+01   0.1759856E+00  0.1083415E-15 -0.9843927E+00
  0.2662803E+01 -0.4622629E+01 -0.4817469E+01   0.1759856E+00  0.1083415E-15 -0.9843927E+00
 -0.8287176E+00 -0.4622629E+01 -0.5441668E+01   0.1759856E+00  0.1083415E-15 -0.9843927E+00
 -0.8287176E+00  0.4622629E+01 -0.5441668E+01   0.1759856E+00  0.1083415E-15 -0.9843927E+00
           4
 -0.2662803E+01  0.4622629E+01  0.4817469E+01  -0.1759856E+00 -0.1083415E-15  0.9843927E+00
 -0.2662803E+01 -0.4622629E+01  0.4817469E+01  -0.1759856E+00 -0.1083415E-15  0.9843927E+00
  0.8287176E+00 -0.4622629E+01  0.5441668E+01  -0.1759856E+00 -0.1083415E-15  0.9843927E+00
  0.8287176E+00  0.4622629E+01  0.5441668E+01  -0.1759856E+00 -0.1083415E-15  0.9843927E+00
           6
  0.2662803E+01  0.4622629E+01 -0.4817469E+01  -0.1667751E-15  0.1000000E+01  0.1068729E-14
 -0.8287176E+00  0.4622629E+01 -0.5441668E+01  -0.1667751E-15  0.1000000E+01  0.1068729E-14
 -0.2662803E+01  0.4622629E+01 -0.4817469E+01  -0.1667751E-15  0.1000000E+01  0.1068729E-14
 -0.2662803E+01  0.4622629E+01  0.4817469E+01  -0.1667751E-15  0.1000000E+01  0.1068729E-14
  0.8287176E+00  0.4622629E+01  0.5441668E+01  -0.1667751E-15  0.1000000E+01  0.1068729E-14
  0.2662803E+01  0.4622629E+01  0.4817469E+01  -0.1667751E-15  0.1000000E+01  0.1068729E-14
           4
  0.2662803E+01  0.4622629E+01  0.4817469E+01   0.1000000E+01  0.4803427E-16  0.4427948E-32
  0.2662803E+01 -0.4622629E+01  0.4817469E+01   0.1000000E+01  0.4803427E-16  0.4427948E-32
  0.2662803E+01 -0.4622629E+01 -0.4817469E+01   0.1000000E+01  0.4803427E-16  0.4427948E-32
  0.2662803E+01  0.4622629E+01 -0.4817469E+01   0.1000000E+01  0.4803427E-16  0.4427948E-32
           4
  0.8287176E+00 -0.4622629E+01  0.5441668E+01   0.3221851E+00 -0.3574362E-16  0.9466767E+00
  0.2662803E+01 -0.4622629E+01  0.4817469E+01   0.3221851E+00 -0.3574362E-16  0.9466767E+00
  0.2662803E+01  0.4622629E+01  0.4817469E+01   0.3221851E+00 -0.3574362E-16  0.9466767E+00
  0.8287176E+00  0.4622629E+01  0.5441668E+01   0.3221851E+00 -0.3574362E-16  0.9466767E+00
 WIGNER-SEITZ-CONVCELL_END
 BRILLOUIN-ZONE-PRIMCELL
           4
  0.9959835E-01  0.5408178E-01 -0.1516794E-01   0.9466767E+00  0.0000000E+00 -0.3221851E+00
  0.9959835E-01 -0.5408178E-01 -0.1516794E-01   0.9466767E+00  0.0000000E+00 -0.3221851E+00
  0.8817368E-01 -0.5408178E-01 -0.4873704E-01   0.9466767E+00  0.0000000E+00 -0.3221851E+00
  0.8817368E-01  0.5408178E-01 -0.4873704E-01   0.9466767E+00  0.0000000E+00 -0.3221851E+00
           4
 -0.8817368E-01 -0.5408178E-01 -0.4873704E-01   0.0000000E+00  0.0000000E+00 -0.1000000E+01
 -0.8817368E-01  0.5408178E-01 -0.4873704E-01   0.0000000E+00  0.0000000E+00 -0.1000000E+01
  0.8817368E-01  0.5408178E-01 -0.4873704E-01   0.0000000E+00  0.0000000E+00 -0.1000000E+01
  0.8817368E-01 -0.5408178E-01 -0.4873704E-01   0.0000000E+00  0.0000000E+00 -0.1000000E+01
           6
  0.8817368E-01 -0.5408178E-01  0.4873704E-01   0.0000000E+00 -0.1000000E+01  0.2930364E-15
 -0.8817368E-01 -0.5408178E-01  0.4873704E-01   0.0000000E+00 -0.1000000E+01  0.2930364E-15
 -0.9959835E-01 -0.5408178E-01  0.1516794E-01   0.0000000E+00 -0.1000000E+01  0.2930364E-15
 -0.8817368E-01 -0.5408178E-01 -0.4873704E-01   0.0000000E+00 -0.1000000E+01  0.2930364E-15
  0.8817368E-01 -0.5408178E-01 -0.4873704E-01   0.0000000E+00 -0.1000000E+01  0.2930364E-15
  0.9959835E-01 -0.5408178E-01 -0.1516794E-01   0.0000000E+00 -0.1000000E+01  0.2930364E-15
           4
  0.8817368E-01 -0.5408178E-01  0.4873704E-01   0.9843927E+00 -0.1158042E-16  0.1759856E+00
  0.9959835E-01 -0.5408178E-01 -0.1516794E-01   0.9843927E+00 -0.1158042E-16  0.1759856E+00
  0.9959835E-01  0.5408178E-01 -0.1516794E-01   0.9843927E+00 -0.1158042E-16  0.1759856E+00
  0.8817368E-01  0.5408178E-01  0.4873704E-01   0.9843927E+00 -0.1158042E-16  0.1759856E+00
           4
 -0.9959835E-01  0.5408178E-01  0.1516794E-01  -0.9843927E+00  0.1989206E-15 -0.1759856E+00
 -0.8817368E-01  0.5408178E-01 -0.4873704E-01  -0.9843927E+00  0.1989206E-15 -0.1759856E+00
 -0.8817368E-01 -0.5408178E-01 -0.4873704E-01  -0.9843927E+00  0.1989206E-15 -0.1759856E+00
 -0.9959835E-01 -0.5408178E-01  0.1516794E-01  -0.9843927E+00  0.1989206E-15 -0.1759856E+00
           6
  0.9959835E-01  0.5408178E-01 -0.1516794E-01  -0.0000000E+00  0.1000000E+01  0.2930364E-15
  0.8817368E-01  0.5408178E-01 -0.4873704E-01  -0.0000000E+00  0.1000000E+01  0.2930364E-15
 -0.8817368E-01  0.5408178E-01 -0.4873704E-01  -0.0000000E+00  0.1000000E+01  0.2930364E-15
 -0.9959835E-01  0.5408178E-01  0.1516794E-01  -0.0000000E+00  0.1000000E+01  0.2930364E-15
 -0.8817368E-01  0.5408178E-01  0.4873704E-01  -0.0000000E+00  0.1000000E+01  0.2930364E-15
  0.8817368E-01  0.5408178E-01  0.4873704E-01  -0.0000000E+00  0.1000000E+01  0.2930364E-15
           4
  0.8817368E-01 -0.5408178E-01  0.4873704E-01  -0.0000000E+00 -0.0000000E+00  0.1000000E+01
  0.8817368E-01  0.5408178E-01  0.4873704E-01  -0.0000000E+00 -0.0000000E+00  0.1000000E+01
 -0.8817368E-01  0.5408178E-01  0.4873704E-01  -0.0000000E+00 -0.0000000E+00  0.1000000E+01
 -0.8817368E-01 -0.5408178E-01  0.4873704E-01  -0.0000000E+00 -0.0000000E+00  0.1000000E+01
           4
 -0.8817368E-01  0.5408178E-01  0.4873704E-01  -0.9466767E+00 -0.1268753E-15  0.3221851E+00
 -0.9959835E-01  0.5408178E-01  0.1516794E-01  -0.9466767E+00 -0.1268753E-15  0.3221851E+00
 -0.9959835E-01 -0.5408178E-01  0.1516794E-01  -0.9466767E+00 -0.1268753E-15  0.3221851E+00
 -0.8817368E-01 -0.5408178E-01  0.4873704E-01  -0.9466767E+00 -0.1268753E-15  0.3221851E+00
 BRILLOUIN-ZONE-PRIMCELL_END
 BRILLOUIN-ZONE-CONVCELL
           4
  0.9959835E-01  0.5408178E-01 -0.1516794E-01   0.9466767E+00  0.0000000E+00 -0.3221851E+00
  0.9959835E-01 -0.5408178E-01 -0.1516794E-01   0.9466767E+00  0.0000000E+00 -0.3221851E+00
  0.8817368E-01 -0.5408178E-01 -0.4873704E-01   0.9466767E+00  0.0000000E+00 -0.3221851E+00
  0.8817368E-01  0.5408178E-01 -0.4873704E-01   0.9466767E+00  0.0000000E+00 -0.3221851E+00
           4
 -0.8817368E-01 -0.5408178E-01 -0.4873704E-01   0.0000000E+00  0.0000000E+00 -0.1000000E+01
 -0.8817368E-01  0.5408178E-01 -0.4873704E-01   0.0000000E+00  0.0000000E+00 -0.1000000E+01
  0.8817368E-01  0.5408178E-01 -0.4873704E-01   0.0000000E+00  0.0000000E+00 -0.1000000E+01
  0.8817368E-01 -0.5408178E-01 -0.4873704E-01   0.0000000E+00  0.0000000E+00 -0.1000000E+01
           6
  0.8817368E-01 -0.5408178E-01  0.4873704E-01   0.0000000E+00 -0.1000000E+01  0.2930364E-15
 -0.8817368E-01 -0.5408178E-01  0.4873704E-01   0.0000000E+00 -0.1000000E+01  0.2930364E-15
 -0.9959835E-01 -0.5408178E-01  0.1516794E-01   0.0000000E+00 -0.1000000E+01  0.2930364E-15
 -0.8817368E-01 -0.5408178E-01 -0.4873704E-01   0.0000000E+00 -0.1000000E+01  0.2930364E-15
  0.8817368E-01 -0.5408178E-01 -0.4873704E-01   0.0000000E+00 -0.1000000E+01  0.2930364E-15
  0.9959835E-01 -0.5408178E-01 -0.1516794E-01   0.0000000E+00 -0.1000000E+01  0.2930364E-15
           4
  0.8817368E-01 -0.5408178E-01  0.4873704E-01   0.9843927E+00 -0.1158042E-16  0.1759856E+00
  0.9959835E-01 -0.5408178E-01 -0.1516794E-01   0.9843927E+00 -0.1158042E-16  0.1759856E+00
  0.9959835E-01  0.5408178E-01 -0.1516794E-01   0.9843927E+00 -0.1158042E-16  0.1759856E+00
  0.8817368E-01  0.5408178E-01  0.4873704E-01   0.9843927E+00 -0.1158042E-16  0.1759856E+00
           4
 -0.9959835E-01  0.5408178E-01  0.1516794E-01  -0.9843927E+00  0.1989206E-15 -0.1759856E+00
 -0.8817368E-01  0.5408178E-01 -0.4873704E-01  -0.9843927E+00  0.1989206E-15 -0.1759856E+00
 -0.8817368E-01 -0.5408178E-01 -0.4873704E-01  -0.9843927E+00  0.1989206E-15 -0.1759856E+00
 -0.9959835E-01 -0.5408178E-01  0.1516794E-01  -0.9843927E+00  0.1989206E-15 -0.1759856E+00
           6
  0.9959835E-01  0.5408178E-01 -0.1516794E-01  -0.0000000E+00  0.1000000E+01  0.2930364E-15
  0.8817368E-01  0.5408178E-01 -0.4873704E-01  -0.0000000E+00  0.1000000E+01  0.2930364E-15
 -0.8817368E-01  0.5408178E-01 -0.4873704E-01  -0.0000000E+00  0.1000000E+01  0.2930364E-15
 -0.9959835E-01  0.5408178E-01  0.1516794E-01  -0.0000000E+00  0.1000000E+01  0.2930364E-15
 -0.8817368E-01  0.5408178E-01  0.4873704E-01  -0.0000000E+00  0.1000000E+01  0.2930364E-15
  0.8817368E-01  0.5408178E-01  0.4873704E-01  -0.0000000E+00  0.1000000E+01  0.2930364E-15
           4
  0.8817368E-01 -0.5408178E-01  0.4873704E-01  -0.0000000E+00 -0.0000000E+00  0.1000000E+01
  0.8817368E-01  0.5408178E-01  0.4873704E-01  -0.0000000E+00 -0.0000000E+00  0.1000000E+01
 -0.8817368E-01  0.5408178E-01  0.4873704E-01  -0.0000000E+00 -0.0000000E+00  0.1000000E+01
 -0.8817368E-01 -0.5408178E-01  0.4873704E-01  -0.0000000E+00 -0.0000000E+00  0.1000000E+01
           4
 -0.8817368E-01  0.5408178E-01  0.4873704E-01  -0.9466767E+00 -0.1268753E-15  0.3221851E+00
 -0.9959835E-01  0.5408178E-01  0.1516794E-01  -0.9466767E+00 -0.1268753E-15  0.3221851E+00
 -0.9959835E-01 -0.5408178E-01  0.1516794E-01  -0.9466767E+00 -0.1268753E-15  0.3221851E+00
 -0.8817368E-01 -0.5408178E-01  0.4873704E-01  -0.9466767E+00 -0.1268753E-15  0.3221851E+00
 BRILLOUIN-ZONE-CONVCELL_END
 ATOMS
   19    0.0000000000    4.6392220940    0.0000000000    0.0000000000   -0.0004080200    0.0000000000
   19    2.6628039430    0.0299434890    0.0000000000    0.0000000000   -0.0000181900    0.0000000000
   12   -0.9170416550    6.1216933980    5.1295671550    0.0000000000   -0.0006714100    0.0000000000
   12    1.7457622830    4.5311031600    5.1295671550    0.0000000000   -0.0000549200    0.0000000000
   12    1.7457622830    7.7672694510    5.1295671550    0.0000000000   -0.0003196400    0.0000000000
   14    0.0006480560    1.5193742460    2.2898811810   -0.0007013200   -0.0000545500    0.0001547100
   14    3.4908765620    1.5193742460    7.9692532830    0.0007013200   -0.0000545500   -0.0001547100
   14    3.5818034250    7.6963294470    7.8700888740    0.0002270100   -0.0002583900    0.0004606900
   14   -0.0902788030    7.6963294470    2.3890451180   -0.0002270100   -0.0002583900   -0.0004606900
   14    2.5662757300    6.1693793850    2.3697164600   -0.0002030900    0.0000916400    0.0005202800
   14    0.9252487050    6.1693793850    7.8894176860    0.0002030900    0.0000916400   -0.0005202800
   13    0.7718102880    3.0726392900    7.9515501610    0.0001910200    0.0003314100   -0.0006234800
   13    2.7197141230    3.0726392900    2.3075841490   -0.0001910200    0.0003314100    0.0006234800
    8   -0.1787098340    1.5728070750    3.9377030840    0.0000637100   -0.0002615600    0.0004187600
    8    3.6702342940    1.5728070750    6.3214309180   -0.0000637100   -0.0002615600   -0.0004187600
    8    3.5378367020    7.6241075100    6.2546144110    0.0006758600   -0.0002879600    0.0003588800
    8   -0.0463120010    7.6241075100    4.0045195910   -0.0006758600   -0.0002879600   -0.0003588800
    8    2.6107537150    6.1329342110    4.0011810800   -0.0000161500    0.0000900500    0.0007336800
    8    0.8807708530    6.1329342110    6.2579532190    0.0000161500    0.0000900500   -0.0007336800
    8    0.6272034920    3.1742778810    6.1979516380   -0.0002563800   -0.0003823100   -0.0004304000
    8    2.8643212880    3.1742778810    4.0611823640    0.0002563800   -0.0003823100    0.0004304000
    8    1.4834346830    1.9445827400    1.8156431450   -0.0003756800   -0.0001641600    0.0001756500
    8    2.0080897060    1.9445827400    8.4434903960    0.0003756800   -0.0001641600   -0.0001756500
    8   -0.2448815490    9.2091868620    1.7713050050    0.0005490100   -0.0000702700   -0.0004325100
    8    3.7364061420    9.2091868620    8.4878291510   -0.0005490100   -0.0000702700    0.0004325100
    8    2.1890137550    7.0630807340    8.4962741780   -0.0005386200    0.0007315600   -0.0002840400
    8    1.3025106560    7.0630807340    1.7628601320    0.0005386200    0.0007315600    0.0002840400
    8    3.9831909010    6.8095162840    1.7682849710   -0.0002929300   -0.0003599200    0.0000715600
    8   -0.4916662810    6.8095162840    8.4908494830    0.0002929300   -0.0003599200   -0.0000715600
    8    2.3885960040    4.6960216970    1.7048327670   -0.0000217400    0.0003833900   -0.0004595600
    8    1.1029282220    4.6960216970    8.5543016870    0.0000217400    0.0003833900    0.0004595600
    8   -0.7482875200    2.5163968540    8.6541741630    0.0003791900   -0.0001672600    0.0009003800
    8    4.2398123020    2.5163968540    1.6049598290   -0.0003791900   -0.0001672600   -0.0009003800
    8   -0.0255387460    4.5306861700    4.0913381640   -0.0003825600    0.0000700100   -0.0004157400
    8    3.5170634710    4.5306861700    6.1677961460    0.0003825600    0.0000700100    0.0004157400
    8    2.7556397310    9.0605394880    3.9867616290   -0.0000209500    0.0003921500    0.0002996100
    8    0.7358851540    9.0605394880    6.2723726810    0.0000209500    0.0003921500   -0.0002996100
    1   -0.1279823460    4.4851953910    3.1292502200   -0.0001068700    0.0005348300   -0.0003597900
    1    3.6195073790    4.4851953910    7.1298834740    0.0001068700    0.0005348300    0.0003597900
    1    2.3056868880    0.6704478010    3.8962469790   -0.0000301600    0.0000095300   -0.0000443600
    1    1.1858376230    0.6704478010    6.3628876380    0.0000301600    0.0000095300    0.0000443600
   22   -0.9170416550    2.8865857730    5.1295671550    0.0000000000    0.0000454600    0.0000000000
   19   -1.8340856630    4.6392220940   10.2591367520    0.0000000000   -0.0004080200    0.0000000000
   19    0.8287182800    0.0299434890   10.2591367520    0.0000000000   -0.0000181900    0.0000000000
   12   -0.9170416550    9.1746376030    5.1295671550    0.0000000000    0.0001703600    0.0000000000
   19    5.3256066180    4.6392220940    0.0000000000    0.0000000000   -0.0004080200    0.0000000000
   12    4.4085649630    6.1216933980    5.1295671550    0.0000000000   -0.0006714100    0.0000000000
   22    4.4085649630    2.8865857730    5.1295671550    0.0000000000    0.0000454600    0.0000000000
   19    3.4915209550    4.6392220940   10.2591367520    0.0000000000   -0.0004080200    0.0000000000
   12    4.4085649630    9.1746376030    5.1295671550    0.0000000000    0.0001703600    0.0000000000
 FRAMES
1      0.0000000000    0.0000000000    0.0000000000      5.3256066180    0.0000000000    0.0000000000
1      0.0000000000    0.0000000000    0.0000000000      0.0000000000    9.2452584150    0.0000000000
1      0.0000000000    0.0000000000    0.0000000000     -1.8340856630    0.0000000000   10.2591367520
1     -1.8340856630    0.0000000000   10.2591367520      3.4915209550    0.0000000000   10.2591367520
1     -1.8340856630    0.0000000000   10.2591367520     -1.8340856630    9.2452584150   10.2591367520
1      0.0000000000    9.2452584150    0.0000000000      5.3256066180    9.2452584150    0.0000000000
1      0.0000000000    9.2452584150    0.0000000000     -1.8340856630    9.2452584150   10.2591367520
1     -1.8340856630    9.2452584150   10.2591367520      3.4915209550    9.2452584150   10.2591367520
1      5.3256066180    0.0000000000    0.0000000000      5.3256066180    9.2452584150    0.0000000000
1      5.3256066180    0.0000000000    0.0000000000      3.4915209550    0.0000000000   10.2591367520
1      3.4915209550    0.0000000000   10.2591367520      3.4915209550    9.2452584150   10.2591367520
1      5.3256066180    9.2452584150    0.0000000000      3.4915209550    9.2452584150   10.2591367520
