 INFO
nunit      1    1    1
unit   cell
celltype   primcell
shape   parapipedal
 END_INFO
 DIM-GROUP
           3           1
 PRIMVEC
    5.3389232520    0.0000000000    0.0000000000
    0.0000000000    9.2419473730    0.0000000000
   -1.8270334850    0.0000000000   10.2789491300
 CONVVEC
    5.3389232520    0.0000000000    0.0000000000
    0.0000000000    9.2419473730    0.0000000000
   -1.8270334850    0.0000000000   10.2789491300
 PRIMCOORD
          44           1
 19      0.0000000000     4.5153918620     0.0000000000     0.0000000000    -0.0005152600     0.0000000000
 19      2.6694604330     0.0852838370     0.0000000000     0.0000000000     0.0004982900     0.0000000000
 12     -0.9135157740     0.0318172940     5.1394752430     0.0000000000     0.0003062700     0.0000000000
 12     -0.9135157740     3.0683633670     5.1394752430     0.0000000000     0.0001496400     0.0000000000
 12      1.7559446590     4.5594442830     5.1394752430     0.0000000000     0.0004003500     0.0000000000
 12      1.7559446590     7.7129374950     5.1394752430     0.0000000000    -0.0002446700     0.0000000000
 12      1.7559446590     1.5963723140     5.1394752430     0.0000000000    -0.0001915000     0.0000000000
 14      0.0389193510     1.5267937740     2.3347017710    -0.0001144100     0.0001576200    -0.0001737100
 14      3.4729699580     1.5267937740     7.9442490140     0.0001144100     0.0001576200     0.0001737100
 14      3.5995358140     7.7136658030     7.8993365790     0.0002127000     0.0001539800     0.0000354800
 14     -0.0876465750     7.7136658030     2.3796139080    -0.0002127000     0.0001539800    -0.0000354800
 14      2.5644223380     6.1606057710     2.3571091380    -0.0001748400    -0.0001903900    -0.0001277500
 14      0.9474669810     6.1606057710     7.9218413490     0.0001748400    -0.0001903900     0.0001277500
 13      0.8003770910     3.0618051610     7.9245424860     0.0000569000     0.0000495900     0.0002780600
 13      2.7115122830     3.0618051610     2.3544076920    -0.0000569000     0.0000495900    -0.0002780600
  8     -0.0219396040     1.5120113130     3.9698780040     0.0000309000    -0.0002684300    -0.0002615700
  8      3.5338288680     1.5120113130     6.3090727910    -0.0000309000    -0.0002684300     0.0002615700
  8      3.5433115190     7.7174733150     6.2768866650    -0.0001496400     0.0002184000     0.0002001900
  8     -0.0314220670     7.7174733150     4.0020635240     0.0001496400     0.0002184000    -0.0002001900
  8      2.5573228650     6.1808390790     3.9830624820    -0.0001655400    -0.0001084500    -0.0002807600
  8      0.9545663990     6.1808390790     6.2958883130     0.0001655400    -0.0001084500     0.0002807600
  8      0.8206976490     3.0810848020     6.1878827100    -0.0003172300    -0.0001183800     0.0003642100
  8      2.6911915640     3.0810848020     4.0910674690     0.0003172300    -0.0001183800    -0.0003642100
  8      1.5170321560     1.8953832510     1.7541673730     0.0001609700     0.0003604600     0.0002736900
  8      1.9948572160     1.8953832510     8.5247828160    -0.0001609700     0.0003604600    -0.0002736900
  8      5.0310375290     9.2227026310     1.7667063350    -0.0003184800    -0.0000965400     0.0002288600
  8     -1.5191480580     9.2227026310     8.5122436890     0.0003184800    -0.0000965400    -0.0002288600
  8      2.1825104370     7.1194698780     8.5206041850    -0.0001119000     0.0001605400    -0.0001806700
  8      1.3293789080     7.1194698780     1.7583461580     0.0001119000     0.0001605400     0.0001806700
  8      3.9976708520     6.8087448800     1.7899363580    -0.0000879700    -0.0001948800     0.0004286400
  8     -0.4857814800     6.8087448800     8.4890142830     0.0000879700    -0.0001948800    -0.0004286400
  8      2.3896669090     4.6895788470     1.7015988800    -0.0003228300    -0.0000745000     0.0005073000
  8      1.1222223850     4.6895788470     8.5773517510     0.0003228300    -0.0000745000    -0.0005073000
  8     -0.7614674780     2.5397593800     8.5832752920     0.0001485300     0.0001664800    -0.0004724300
  8      4.2733568500     2.5397593800     1.6956753490    -0.0001485300     0.0001664800     0.0004724300
  8     -0.0053492380     4.6349363020     4.0587747150     0.0000374400     0.0000241000    -0.0001940400
  8      3.5172386570     4.6349363020     6.2201760800    -0.0000374400     0.0000241000     0.0001940400
  8      2.6548036480     9.2419034290     4.1161378030     0.0000597200    -0.0005171400     0.0001523300
  8      0.8570855660     9.2419034290     6.1628123750    -0.0000597200    -0.0005171400    -0.0001523300
  1     -0.0800289150     4.5766537900     3.0956603640    -0.0001360900     0.0002350000    -0.0001575700
  1      3.5919184490     4.5766537900     7.1832898150     0.0001360900     0.0002350000     0.0001575700
  1      2.6332534820     0.1277320900     3.1579031450    -0.0000371500    -0.0000641200     0.0005061700
  1      0.8786357820     0.1277320900     7.1210476510     0.0000371500    -0.0000641200    -0.0005061700
 26     -0.9135157740     6.1308878920     5.1394752430     0.0000000000    -0.0001898100     0.0000000000
 CONVCOORD
          44           1
 19      0.0000000000     4.5153918620     0.0000000000
 19      2.6694604330     0.0852838370     0.0000000000
 12     -0.9135157740     0.0318172940     5.1394752430
 12     -0.9135157740     3.0683633670     5.1394752430
 12      1.7559446590     4.5594442830     5.1394752430
 12      1.7559446590     7.7129374950     5.1394752430
 12      1.7559446590     1.5963723140     5.1394752430
 14      0.0389193510     1.5267937740     2.3347017710
 14      3.4729699580     1.5267937740     7.9442490140
 14      3.5995358140     7.7136658030     7.8993365790
 14     -0.0876465750     7.7136658030     2.3796139080
 14      2.5644223380     6.1606057710     2.3571091380
 14      0.9474669810     6.1606057710     7.9218413490
 13      0.8003770910     3.0618051610     7.9245424860
 13      2.7115122830     3.0618051610     2.3544076920
  8     -0.0219396040     1.5120113130     3.9698780040
  8      3.5338288680     1.5120113130     6.3090727910
  8      3.5433115190     7.7174733150     6.2768866650
  8     -0.0314220670     7.7174733150     4.0020635240
  8      2.5573228650     6.1808390790     3.9830624820
  8      0.9545663990     6.1808390790     6.2958883130
  8      0.8206976490     3.0810848020     6.1878827100
  8      2.6911915640     3.0810848020     4.0910674690
  8      1.5170321560     1.8953832510     1.7541673730
  8      1.9948572160     1.8953832510     8.5247828160
  8     -0.3078857230     9.2227026310     1.7667063350
  8     -1.5191480580     9.2227026310     8.5122436890
  8      2.1825104370     7.1194698780     8.5206041850
  8      1.3293789080     7.1194698780     1.7583461580
  8      3.9976708520     6.8087448800     1.7899363580
  8     -0.4857814800     6.8087448800     8.4890142830
  8      2.3896669090     4.6895788470     1.7015988800
  8      1.1222223850     4.6895788470     8.5773517510
  8     -0.7614674780     2.5397593800     8.5832752920
  8      4.2733568500     2.5397593800     1.6956753490
  8     -0.0053492380     4.6349363020     4.0587747150
  8      3.5172386570     4.6349363020     6.2201760800
  8      2.6548036480     9.2419034290     4.1161378030
  8      0.8570855660     9.2419034290     6.1628123750
  1     -0.0800289150     4.5766537900     3.0956603640
  1      3.5919184490     4.5766537900     7.1832898150
  1      2.6332534820     0.1277320900     3.1579031450
  1      0.8786357820     0.1277320900     7.1210476510
 26     -0.9135157740     6.1308878920     5.1394752430
 RECIP-PRIMVEC
    0.1873036852   -0.0000000000    0.0332923240

    0.0000000000    0.1082023041   -0.0000000000

    0.0000000000    0.0000000000    0.0972862096

 RECIP-CONVVEC
    0.1873036852   -0.0000000000    0.0332923240

    0.0000000000    0.1082023041   -0.0000000000

    0.0000000000    0.0000000000    0.0972862096

 WIGNER-SEITZ-PRIMCELL
           4
 -0.2669462E+01  0.4620974E+01 -0.4827364E+01  -0.3233091E+00  0.0000000E+00 -0.9462934E+00
 -0.8424281E+00  0.4620974E+01 -0.5451585E+01  -0.3233091E+00  0.0000000E+00 -0.9462934E+00
 -0.8424281E+00 -0.4620974E+01 -0.5451585E+01  -0.3233091E+00  0.0000000E+00 -0.9462934E+00
 -0.2669462E+01 -0.4620974E+01 -0.4827364E+01  -0.3233091E+00  0.0000000E+00 -0.9462934E+00
           4
 -0.2669462E+01  0.4620974E+01 -0.4827364E+01  -0.1000000E+01 -0.0000000E+00 -0.0000000E+00
 -0.2669462E+01 -0.4620974E+01 -0.4827364E+01  -0.1000000E+01 -0.0000000E+00 -0.0000000E+00
 -0.2669462E+01 -0.4620974E+01  0.4827364E+01  -0.1000000E+01 -0.0000000E+00 -0.0000000E+00
 -0.2669462E+01  0.4620974E+01  0.4827364E+01  -0.1000000E+01 -0.0000000E+00 -0.0000000E+00
           6
  0.2669462E+01 -0.4620974E+01  0.4827364E+01  -0.0000000E+00 -0.1000000E+01  0.0000000E+00
  0.8424281E+00 -0.4620974E+01  0.5451585E+01  -0.0000000E+00 -0.1000000E+01  0.0000000E+00
 -0.2669462E+01 -0.4620974E+01  0.4827364E+01  -0.0000000E+00 -0.1000000E+01  0.0000000E+00
 -0.2669462E+01 -0.4620974E+01 -0.4827364E+01  -0.0000000E+00 -0.1000000E+01  0.0000000E+00
 -0.8424281E+00 -0.4620974E+01 -0.5451585E+01  -0.0000000E+00 -0.1000000E+01  0.0000000E+00
  0.2669462E+01 -0.4620974E+01 -0.4827364E+01  -0.0000000E+00 -0.1000000E+01  0.0000000E+00
           4
  0.2669462E+01 -0.4620974E+01 -0.4827364E+01   0.1750022E+00  0.0000000E+00 -0.9845680E+00
 -0.8424281E+00 -0.4620974E+01 -0.5451585E+01   0.1750022E+00  0.0000000E+00 -0.9845680E+00
 -0.8424281E+00  0.4620974E+01 -0.5451585E+01   0.1750022E+00  0.0000000E+00 -0.9845680E+00
  0.2669462E+01  0.4620974E+01 -0.4827364E+01   0.1750022E+00  0.0000000E+00 -0.9845680E+00
           4
 -0.2669462E+01  0.4620974E+01  0.4827364E+01  -0.1750022E+00 -0.1077709E-15  0.9845680E+00
 -0.2669462E+01 -0.4620974E+01  0.4827364E+01  -0.1750022E+00 -0.1077709E-15  0.9845680E+00
  0.8424281E+00 -0.4620974E+01  0.5451585E+01  -0.1750022E+00 -0.1077709E-15  0.9845680E+00
  0.8424281E+00  0.4620974E+01  0.5451585E+01  -0.1750022E+00 -0.1077709E-15  0.9845680E+00
           6
  0.2669462E+01  0.4620974E+01 -0.4827364E+01   0.0000000E+00  0.1000000E+01 -0.5330131E-15
 -0.8424281E+00  0.4620974E+01 -0.5451585E+01   0.0000000E+00  0.1000000E+01 -0.5330131E-15
 -0.2669462E+01  0.4620974E+01 -0.4827364E+01   0.0000000E+00  0.1000000E+01 -0.5330131E-15
 -0.2669462E+01  0.4620974E+01  0.4827364E+01   0.0000000E+00  0.1000000E+01 -0.5330131E-15
  0.8424281E+00  0.4620974E+01  0.5451585E+01   0.0000000E+00  0.1000000E+01 -0.5330131E-15
  0.2669462E+01  0.4620974E+01  0.4827364E+01   0.0000000E+00  0.1000000E+01 -0.5330131E-15
           4
  0.2669462E+01  0.4620974E+01  0.4827364E+01   0.1000000E+01  0.0000000E+00  0.0000000E+00
  0.2669462E+01 -0.4620974E+01  0.4827364E+01   0.1000000E+01  0.0000000E+00  0.0000000E+00
  0.2669462E+01 -0.4620974E+01 -0.4827364E+01   0.1000000E+01  0.0000000E+00  0.0000000E+00
  0.2669462E+01  0.4620974E+01 -0.4827364E+01   0.1000000E+01  0.0000000E+00  0.0000000E+00
           4
  0.2669462E+01 -0.4620974E+01  0.4827364E+01   0.3233091E+00  0.3982044E-15  0.9462934E+00
  0.2669462E+01  0.4620974E+01  0.4827364E+01   0.3233091E+00  0.3982044E-15  0.9462934E+00
  0.8424281E+00  0.4620974E+01  0.5451585E+01   0.3233091E+00  0.3982044E-15  0.9462934E+00
  0.8424281E+00 -0.4620974E+01  0.5451585E+01   0.3233091E+00  0.3982044E-15  0.9462934E+00
 WIGNER-SEITZ-PRIMCELL_END
 WIGNER-SEITZ-CONVCELL
           4
 -0.2669462E+01  0.4620974E+01 -0.4827364E+01  -0.3233091E+00  0.0000000E+00 -0.9462934E+00
 -0.8424281E+00  0.4620974E+01 -0.5451585E+01  -0.3233091E+00  0.0000000E+00 -0.9462934E+00
 -0.8424281E+00 -0.4620974E+01 -0.5451585E+01  -0.3233091E+00  0.0000000E+00 -0.9462934E+00
 -0.2669462E+01 -0.4620974E+01 -0.4827364E+01  -0.3233091E+00  0.0000000E+00 -0.9462934E+00
           4
 -0.2669462E+01  0.4620974E+01 -0.4827364E+01  -0.1000000E+01 -0.0000000E+00 -0.0000000E+00
 -0.2669462E+01 -0.4620974E+01 -0.4827364E+01  -0.1000000E+01 -0.0000000E+00 -0.0000000E+00
 -0.2669462E+01 -0.4620974E+01  0.4827364E+01  -0.1000000E+01 -0.0000000E+00 -0.0000000E+00
 -0.2669462E+01  0.4620974E+01  0.4827364E+01  -0.1000000E+01 -0.0000000E+00 -0.0000000E+00
           6
  0.2669462E+01 -0.4620974E+01  0.4827364E+01  -0.0000000E+00 -0.1000000E+01  0.0000000E+00
  0.8424281E+00 -0.4620974E+01  0.5451585E+01  -0.0000000E+00 -0.1000000E+01  0.0000000E+00
 -0.2669462E+01 -0.4620974E+01  0.4827364E+01  -0.0000000E+00 -0.1000000E+01  0.0000000E+00
 -0.2669462E+01 -0.4620974E+01 -0.4827364E+01  -0.0000000E+00 -0.1000000E+01  0.0000000E+00
 -0.8424281E+00 -0.4620974E+01 -0.5451585E+01  -0.0000000E+00 -0.1000000E+01  0.0000000E+00
  0.2669462E+01 -0.4620974E+01 -0.4827364E+01  -0.0000000E+00 -0.1000000E+01  0.0000000E+00
           4
  0.2669462E+01 -0.4620974E+01 -0.4827364E+01   0.1750022E+00  0.0000000E+00 -0.9845680E+00
 -0.8424281E+00 -0.4620974E+01 -0.5451585E+01   0.1750022E+00  0.0000000E+00 -0.9845680E+00
 -0.8424281E+00  0.4620974E+01 -0.5451585E+01   0.1750022E+00  0.0000000E+00 -0.9845680E+00
  0.2669462E+01  0.4620974E+01 -0.4827364E+01   0.1750022E+00  0.0000000E+00 -0.9845680E+00
           4
 -0.2669462E+01  0.4620974E+01  0.4827364E+01  -0.1750022E+00 -0.1077709E-15  0.9845680E+00
 -0.2669462E+01 -0.4620974E+01  0.4827364E+01  -0.1750022E+00 -0.1077709E-15  0.9845680E+00
  0.8424281E+00 -0.4620974E+01  0.5451585E+01  -0.1750022E+00 -0.1077709E-15  0.9845680E+00
  0.8424281E+00  0.4620974E+01  0.5451585E+01  -0.1750022E+00 -0.1077709E-15  0.9845680E+00
           6
  0.2669462E+01  0.4620974E+01 -0.4827364E+01   0.0000000E+00  0.1000000E+01 -0.5330131E-15
 -0.8424281E+00  0.4620974E+01 -0.5451585E+01   0.0000000E+00  0.1000000E+01 -0.5330131E-15
 -0.2669462E+01  0.4620974E+01 -0.4827364E+01   0.0000000E+00  0.1000000E+01 -0.5330131E-15
 -0.2669462E+01  0.4620974E+01  0.4827364E+01   0.0000000E+00  0.1000000E+01 -0.5330131E-15
  0.8424281E+00  0.4620974E+01  0.5451585E+01   0.0000000E+00  0.1000000E+01 -0.5330131E-15
  0.2669462E+01  0.4620974E+01  0.4827364E+01   0.0000000E+00  0.1000000E+01 -0.5330131E-15
           4
  0.2669462E+01  0.4620974E+01  0.4827364E+01   0.1000000E+01  0.0000000E+00  0.0000000E+00
  0.2669462E+01 -0.4620974E+01  0.4827364E+01   0.1000000E+01  0.0000000E+00  0.0000000E+00
  0.2669462E+01 -0.4620974E+01 -0.4827364E+01   0.1000000E+01  0.0000000E+00  0.0000000E+00
  0.2669462E+01  0.4620974E+01 -0.4827364E+01   0.1000000E+01  0.0000000E+00  0.0000000E+00
           4
  0.2669462E+01 -0.4620974E+01  0.4827364E+01   0.3233091E+00  0.3982044E-15  0.9462934E+00
  0.2669462E+01  0.4620974E+01  0.4827364E+01   0.3233091E+00  0.3982044E-15  0.9462934E+00
  0.8424281E+00  0.4620974E+01  0.5451585E+01   0.3233091E+00  0.3982044E-15  0.9462934E+00
  0.8424281E+00 -0.4620974E+01  0.5451585E+01   0.3233091E+00  0.3982044E-15  0.9462934E+00
 WIGNER-SEITZ-CONVCELL_END
 BRILLOUIN-ZONE-PRIMCELL
           4
  0.9933914E-01 -0.5410115E-01 -0.1535078E-01   0.9462934E+00  0.2848102E-16 -0.3233091E+00
  0.8796454E-01 -0.5410115E-01 -0.4864310E-01   0.9462934E+00  0.2848102E-16 -0.3233091E+00
  0.8796454E-01  0.5410115E-01 -0.4864310E-01   0.9462934E+00  0.2848102E-16 -0.3233091E+00
  0.9933914E-01  0.5410115E-01 -0.1535078E-01   0.9462934E+00  0.2848102E-16 -0.3233091E+00
           4
 -0.8796454E-01 -0.5410115E-01 -0.4864310E-01  -0.1773117E-16  0.0000000E+00 -0.1000000E+01
 -0.8796454E-01  0.5410115E-01 -0.4864310E-01  -0.1773117E-16  0.0000000E+00 -0.1000000E+01
  0.8796454E-01  0.5410115E-01 -0.4864310E-01  -0.1773117E-16  0.0000000E+00 -0.1000000E+01
  0.8796454E-01 -0.5410115E-01 -0.4864310E-01  -0.1773117E-16  0.0000000E+00 -0.1000000E+01
           6
  0.8796454E-01 -0.5410115E-01  0.4864310E-01  -0.0000000E+00 -0.1000000E+01  0.0000000E+00
 -0.8796454E-01 -0.5410115E-01  0.4864310E-01  -0.0000000E+00 -0.1000000E+01  0.0000000E+00
 -0.9933914E-01 -0.5410115E-01  0.1535078E-01  -0.0000000E+00 -0.1000000E+01  0.0000000E+00
 -0.8796454E-01 -0.5410115E-01 -0.4864310E-01  -0.0000000E+00 -0.1000000E+01  0.0000000E+00
  0.8796454E-01 -0.5410115E-01 -0.4864310E-01  -0.0000000E+00 -0.1000000E+01  0.0000000E+00
  0.9933914E-01 -0.5410115E-01 -0.1535078E-01  -0.0000000E+00 -0.1000000E+01  0.0000000E+00
           4
  0.8796454E-01  0.5410115E-01  0.4864310E-01   0.9845680E+00 -0.3314511E-15  0.1750022E+00
  0.8796454E-01 -0.5410115E-01  0.4864310E-01   0.9845680E+00 -0.3314511E-15  0.1750022E+00
  0.9933914E-01 -0.5410115E-01 -0.1535078E-01   0.9845680E+00 -0.3314511E-15  0.1750022E+00
  0.9933914E-01  0.5410115E-01 -0.1535078E-01   0.9845680E+00 -0.3314511E-15  0.1750022E+00
           4
 -0.8796454E-01  0.5410115E-01 -0.4864310E-01  -0.9845680E+00 -0.1233306E-15 -0.1750022E+00
 -0.8796454E-01 -0.5410115E-01 -0.4864310E-01  -0.9845680E+00 -0.1233306E-15 -0.1750022E+00
 -0.9933914E-01 -0.5410115E-01  0.1535078E-01  -0.9845680E+00 -0.1233306E-15 -0.1750022E+00
 -0.9933914E-01  0.5410115E-01  0.1535078E-01  -0.9845680E+00 -0.1233306E-15 -0.1750022E+00
           6
  0.9933914E-01  0.5410115E-01 -0.1535078E-01  -0.0000000E+00  0.1000000E+01 -0.2961751E-15
  0.8796454E-01  0.5410115E-01 -0.4864310E-01  -0.0000000E+00  0.1000000E+01 -0.2961751E-15
 -0.8796454E-01  0.5410115E-01 -0.4864310E-01  -0.0000000E+00  0.1000000E+01 -0.2961751E-15
 -0.9933914E-01  0.5410115E-01  0.1535078E-01  -0.0000000E+00  0.1000000E+01 -0.2961751E-15
 -0.8796454E-01  0.5410115E-01  0.4864310E-01  -0.0000000E+00  0.1000000E+01 -0.2961751E-15
  0.8796454E-01  0.5410115E-01  0.4864310E-01  -0.0000000E+00  0.1000000E+01 -0.2961751E-15
           4
 -0.8796454E-01 -0.5410115E-01  0.4864310E-01  -0.0000000E+00  0.3546234E-16  0.1000000E+01
  0.8796454E-01 -0.5410115E-01  0.4864310E-01  -0.0000000E+00  0.3546234E-16  0.1000000E+01
  0.8796454E-01  0.5410115E-01  0.4864310E-01  -0.0000000E+00  0.3546234E-16  0.1000000E+01
 -0.8796454E-01  0.5410115E-01  0.4864310E-01  -0.0000000E+00  0.3546234E-16  0.1000000E+01
           4
 -0.9933914E-01  0.5410115E-01  0.1535078E-01  -0.9462934E+00  0.5553798E-15  0.3233091E+00
 -0.9933914E-01 -0.5410115E-01  0.1535078E-01  -0.9462934E+00  0.5553798E-15  0.3233091E+00
 -0.8796454E-01 -0.5410115E-01  0.4864310E-01  -0.9462934E+00  0.5553798E-15  0.3233091E+00
 -0.8796454E-01  0.5410115E-01  0.4864310E-01  -0.9462934E+00  0.5553798E-15  0.3233091E+00
 BRILLOUIN-ZONE-PRIMCELL_END
 BRILLOUIN-ZONE-CONVCELL
           4
  0.9933914E-01 -0.5410115E-01 -0.1535078E-01   0.9462934E+00  0.2848102E-16 -0.3233091E+00
  0.8796454E-01 -0.5410115E-01 -0.4864310E-01   0.9462934E+00  0.2848102E-16 -0.3233091E+00
  0.8796454E-01  0.5410115E-01 -0.4864310E-01   0.9462934E+00  0.2848102E-16 -0.3233091E+00
  0.9933914E-01  0.5410115E-01 -0.1535078E-01   0.9462934E+00  0.2848102E-16 -0.3233091E+00
           4
 -0.8796454E-01 -0.5410115E-01 -0.4864310E-01  -0.1773117E-16  0.0000000E+00 -0.1000000E+01
 -0.8796454E-01  0.5410115E-01 -0.4864310E-01  -0.1773117E-16  0.0000000E+00 -0.1000000E+01
  0.8796454E-01  0.5410115E-01 -0.4864310E-01  -0.1773117E-16  0.0000000E+00 -0.1000000E+01
  0.8796454E-01 -0.5410115E-01 -0.4864310E-01  -0.1773117E-16  0.0000000E+00 -0.1000000E+01
           6
  0.8796454E-01 -0.5410115E-01  0.4864310E-01  -0.0000000E+00 -0.1000000E+01  0.0000000E+00
 -0.8796454E-01 -0.5410115E-01  0.4864310E-01  -0.0000000E+00 -0.1000000E+01  0.0000000E+00
 -0.9933914E-01 -0.5410115E-01  0.1535078E-01  -0.0000000E+00 -0.1000000E+01  0.0000000E+00
 -0.8796454E-01 -0.5410115E-01 -0.4864310E-01  -0.0000000E+00 -0.1000000E+01  0.0000000E+00
  0.8796454E-01 -0.5410115E-01 -0.4864310E-01  -0.0000000E+00 -0.1000000E+01  0.0000000E+00
  0.9933914E-01 -0.5410115E-01 -0.1535078E-01  -0.0000000E+00 -0.1000000E+01  0.0000000E+00
           4
  0.8796454E-01  0.5410115E-01  0.4864310E-01   0.9845680E+00 -0.3314511E-15  0.1750022E+00
  0.8796454E-01 -0.5410115E-01  0.4864310E-01   0.9845680E+00 -0.3314511E-15  0.1750022E+00
  0.9933914E-01 -0.5410115E-01 -0.1535078E-01   0.9845680E+00 -0.3314511E-15  0.1750022E+00
  0.9933914E-01  0.5410115E-01 -0.1535078E-01   0.9845680E+00 -0.3314511E-15  0.1750022E+00
           4
 -0.8796454E-01  0.5410115E-01 -0.4864310E-01  -0.9845680E+00 -0.1233306E-15 -0.1750022E+00
 -0.8796454E-01 -0.5410115E-01 -0.4864310E-01  -0.9845680E+00 -0.1233306E-15 -0.1750022E+00
 -0.9933914E-01 -0.5410115E-01  0.1535078E-01  -0.9845680E+00 -0.1233306E-15 -0.1750022E+00
 -0.9933914E-01  0.5410115E-01  0.1535078E-01  -0.9845680E+00 -0.1233306E-15 -0.1750022E+00
           6
  0.9933914E-01  0.5410115E-01 -0.1535078E-01  -0.0000000E+00  0.1000000E+01 -0.2961751E-15
  0.8796454E-01  0.5410115E-01 -0.4864310E-01  -0.0000000E+00  0.1000000E+01 -0.2961751E-15
 -0.8796454E-01  0.5410115E-01 -0.4864310E-01  -0.0000000E+00  0.1000000E+01 -0.2961751E-15
 -0.9933914E-01  0.5410115E-01  0.1535078E-01  -0.0000000E+00  0.1000000E+01 -0.2961751E-15
 -0.8796454E-01  0.5410115E-01  0.4864310E-01  -0.0000000E+00  0.1000000E+01 -0.2961751E-15
  0.8796454E-01  0.5410115E-01  0.4864310E-01  -0.0000000E+00  0.1000000E+01 -0.2961751E-15
           4
 -0.8796454E-01 -0.5410115E-01  0.4864310E-01  -0.0000000E+00  0.3546234E-16  0.1000000E+01
  0.8796454E-01 -0.5410115E-01  0.4864310E-01  -0.0000000E+00  0.3546234E-16  0.1000000E+01
  0.8796454E-01  0.5410115E-01  0.4864310E-01  -0.0000000E+00  0.3546234E-16  0.1000000E+01
 -0.8796454E-01  0.5410115E-01  0.4864310E-01  -0.0000000E+00  0.3546234E-16  0.1000000E+01
           4
 -0.9933914E-01  0.5410115E-01  0.1535078E-01  -0.9462934E+00  0.5553798E-15  0.3233091E+00
 -0.9933914E-01 -0.5410115E-01  0.1535078E-01  -0.9462934E+00  0.5553798E-15  0.3233091E+00
 -0.8796454E-01 -0.5410115E-01  0.4864310E-01  -0.9462934E+00  0.5553798E-15  0.3233091E+00
 -0.8796454E-01  0.5410115E-01  0.4864310E-01  -0.9462934E+00  0.5553798E-15  0.3233091E+00
 BRILLOUIN-ZONE-CONVCELL_END
 ATOMS
   19    0.0000000000    4.5153918620    0.0000000000    0.0000000000   -0.0005152600    0.0000000000
   19    2.6694604330    0.0852838370    0.0000000000    0.0000000000    0.0004982900    0.0000000000
   12   -0.9135157740    0.0318172940    5.1394752430    0.0000000000    0.0003062700    0.0000000000
   12   -0.9135157740    3.0683633670    5.1394752430    0.0000000000    0.0001496400    0.0000000000
   12    1.7559446590    4.5594442830    5.1394752430    0.0000000000    0.0004003500    0.0000000000
   12    1.7559446590    7.7129374950    5.1394752430    0.0000000000   -0.0002446700    0.0000000000
   12    1.7559446590    1.5963723140    5.1394752430    0.0000000000   -0.0001915000    0.0000000000
   14    0.0389193510    1.5267937740    2.3347017710   -0.0001144100    0.0001576200   -0.0001737100
   14    3.4729699580    1.5267937740    7.9442490140    0.0001144100    0.0001576200    0.0001737100
   14    3.5995358140    7.7136658030    7.8993365790    0.0002127000    0.0001539800    0.0000354800
   14   -0.0876465750    7.7136658030    2.3796139080   -0.0002127000    0.0001539800   -0.0000354800
   14    2.5644223380    6.1606057710    2.3571091380   -0.0001748400   -0.0001903900   -0.0001277500
   14    0.9474669810    6.1606057710    7.9218413490    0.0001748400   -0.0001903900    0.0001277500
   13    0.8003770910    3.0618051610    7.9245424860    0.0000569000    0.0000495900    0.0002780600
   13    2.7115122830    3.0618051610    2.3544076920   -0.0000569000    0.0000495900   -0.0002780600
    8   -0.0219396040    1.5120113130    3.9698780040    0.0000309000   -0.0002684300   -0.0002615700
    8    3.5338288680    1.5120113130    6.3090727910   -0.0000309000   -0.0002684300    0.0002615700
    8    3.5433115190    7.7174733150    6.2768866650   -0.0001496400    0.0002184000    0.0002001900
    8   -0.0314220670    7.7174733150    4.0020635240    0.0001496400    0.0002184000   -0.0002001900
    8    2.5573228650    6.1808390790    3.9830624820   -0.0001655400   -0.0001084500   -0.0002807600
    8    0.9545663990    6.1808390790    6.2958883130    0.0001655400   -0.0001084500    0.0002807600
    8    0.8206976490    3.0810848020    6.1878827100   -0.0003172300   -0.0001183800    0.0003642100
    8    2.6911915640    3.0810848020    4.0910674690    0.0003172300   -0.0001183800   -0.0003642100
    8    1.5170321560    1.8953832510    1.7541673730    0.0001609700    0.0003604600    0.0002736900
    8    1.9948572160    1.8953832510    8.5247828160   -0.0001609700    0.0003604600   -0.0002736900
    8   -0.3078857230    9.2227026310    1.7667063350   -0.0003184800   -0.0000965400    0.0002288600
    8    2.1825104370    7.1194698780    8.5206041850   -0.0001119000    0.0001605400   -0.0001806700
    8    1.3293789080    7.1194698780    1.7583461580    0.0001119000    0.0001605400    0.0001806700
    8    3.9976708520    6.8087448800    1.7899363580   -0.0000879700   -0.0001948800    0.0004286400
    8   -0.4857814800    6.8087448800    8.4890142830    0.0000879700   -0.0001948800   -0.0004286400
    8    2.3896669090    4.6895788470    1.7015988800   -0.0003228300   -0.0000745000    0.0005073000
    8    1.1222223850    4.6895788470    8.5773517510    0.0003228300   -0.0000745000   -0.0005073000
    8   -0.7614674780    2.5397593800    8.5832752920    0.0001485300    0.0001664800   -0.0004724300
    8    4.2733568500    2.5397593800    1.6956753490   -0.0001485300    0.0001664800    0.0004724300
    8   -0.0053492380    4.6349363020    4.0587747150    0.0000374400    0.0000241000   -0.0001940400
    8    3.5172386570    4.6349363020    6.2201760800   -0.0000374400    0.0000241000    0.0001940400
    8    2.6548036480    9.2419034290    4.1161378030    0.0000597200   -0.0005171400    0.0001523300
    8    0.8570855660    9.2419034290    6.1628123750   -0.0000597200   -0.0005171400   -0.0001523300
    1   -0.0800289150    4.5766537900    3.0956603640   -0.0001360900    0.0002350000   -0.0001575700
    1    3.5919184490    4.5766537900    7.1832898150    0.0001360900    0.0002350000    0.0001575700
    1    2.6332534820    0.1277320900    3.1579031450   -0.0000371500   -0.0000641200    0.0005061700
    1    0.8786357820    0.1277320900    7.1210476510    0.0000371500   -0.0000641200   -0.0005061700
   26   -0.9135157740    6.1308878920    5.1394752430    0.0000000000   -0.0001898100    0.0000000000
   19   -1.8270334850    4.5153918620   10.2789491300    0.0000000000   -0.0005152600    0.0000000000
   19    0.8424269480    0.0852838370   10.2789491300    0.0000000000    0.0004982900    0.0000000000
   19    5.3389232520    4.5153918620    0.0000000000    0.0000000000   -0.0005152600    0.0000000000
   12    4.4254074780    0.0318172940    5.1394752430    0.0000000000    0.0003062700    0.0000000000
   12    4.4254074780    3.0683633670    5.1394752430    0.0000000000    0.0001496400    0.0000000000
    8    3.8197751940    9.2227026310    8.5122436890    0.0003184800   -0.0000965400   -0.0002288600
   26    4.4254074780    6.1308878920    5.1394752430    0.0000000000   -0.0001898100    0.0000000000
   19    3.5118897670    4.5153918620   10.2789491300    0.0000000000   -0.0005152600    0.0000000000
 FRAMES
1      0.0000000000    0.0000000000    0.0000000000      5.3389232520    0.0000000000    0.0000000000
1      0.0000000000    0.0000000000    0.0000000000      0.0000000000    9.2419473730    0.0000000000
1      0.0000000000    0.0000000000    0.0000000000     -1.8270334850    0.0000000000   10.2789491300
1     -1.8270334850    0.0000000000   10.2789491300      3.5118897670    0.0000000000   10.2789491300
1     -1.8270334850    0.0000000000   10.2789491300     -1.8270334850    9.2419473730   10.2789491300
1      0.0000000000    9.2419473730    0.0000000000      5.3389232520    9.2419473730    0.0000000000
1      0.0000000000    9.2419473730    0.0000000000     -1.8270334850    9.2419473730   10.2789491300
1     -1.8270334850    9.2419473730   10.2789491300      3.5118897670    9.2419473730   10.2789491300
1      5.3389232520    0.0000000000    0.0000000000      5.3389232520    9.2419473730    0.0000000000
1      5.3389232520    0.0000000000    0.0000000000      3.5118897670    0.0000000000   10.2789491300
1      3.5118897670    0.0000000000   10.2789491300      3.5118897670    9.2419473730   10.2789491300
1      5.3389232520    9.2419473730    0.0000000000      3.5118897670    9.2419473730   10.2789491300
