 INFO
nunit      1    1    1
unit   cell
celltype   primcell
shape   parapipedal
 END_INFO
 DIM-GROUP
           3           1
 PRIMVEC
    5.3256066180    0.0000000000    0.0000000000
    0.0000000000    9.2452584150    0.0000000000
   -1.8340856630    0.0000000000   10.2591367520
 CONVVEC
    5.3256066180    0.0000000000    0.0000000000
    0.0000000000    9.2452584150    0.0000000000
   -1.8340856630    0.0000000000   10.2591367520
 PRIMCOORD
          43           1
 19      0.0000000000     4.5980525420     0.0000000000     0.0000000000    -0.0000179300     0.0000000000
 19      2.6628039430     0.0700578330     0.0000000000     0.0000000000    -0.0002010300     0.0000000000
 12     -0.9170416550    -0.0065034160     5.1295671550     0.0000000000     0.0004931000     0.0000000000
 12     -0.9170416550     6.1548751420     5.1295671550     0.0000000000    -0.0004884800     0.0000000000
 12      1.7457622830     7.6416940090     5.1295671550     0.0000000000    -0.0007017800     0.0000000000
 12      1.7457622830     1.5831501320     5.1295671550     0.0000000000     0.0001517200     0.0000000000
 14      0.0472446900     1.5392327320     2.3117331240    -0.0001029600    -0.0002778500     0.0000647400
 14      3.4442799280     1.5392327320     7.9474013400     0.0001029600    -0.0002778500    -0.0000647400
 14      3.5305048840     7.6946278720     7.8861950270    -0.0001139000    -0.0001205600     0.0000430200
 14     -0.0389802620     7.6946278720     2.3729389650     0.0001139000    -0.0001205600    -0.0000430200
 14      2.6396433380     6.1825139500     2.3680448690     0.0000601100     0.0004564400    -0.0000151000
 14      0.8518810970     6.1825139500     7.8910892770    -0.0000601100     0.0004564400     0.0000151000
 13      0.7337659540     3.0762885800     7.9420804090    -0.0001515200     0.0003358100    -0.0001292700
 13      2.7577584570     3.0762885800     2.3170539010     0.0001515200     0.0003358100     0.0001292700
  8     -0.0397654580     1.5825675870     3.9712894770     0.0000104200     0.0001354000     0.0001171500
  8      3.5312899190     1.5825675870     6.2878445250    -0.0000104200     0.0001354000    -0.0001171500
  8      3.5257681530     7.6845006160     6.2618401890     0.0003030300    -0.0001258300     0.0000209600
  8     -0.0342434530     7.6845006160     3.9972938130    -0.0003030300    -0.0001258300    -0.0000209600
  8      2.6895099590     6.2504008700     3.9738835300    -0.0006212100    -0.0000828000     0.0001118400
  8      0.8020146080     6.2504008700     6.2852507700     0.0006212100    -0.0000828000    -0.0001118400
  8      0.6469910310     2.9824474640     6.1763331210    -0.0000155800    -0.0001757400    -0.0004111300
  8      2.8445337500     2.9824474640     4.0828008820     0.0000155800    -0.0001757400     0.0004111300
  8      1.5337144270     1.9220360290     1.7930455180    -0.0000827500     0.0001715400    -0.0001268600
  8      1.9578099620     1.9220360290     8.4660880220     0.0000827500     0.0001715400     0.0001268600
  8     -0.2475406410     9.2241285850     1.8014223110    -0.0001151600    -0.0000744400     0.0001306000
  8      3.7390652340     9.2241285850     8.4577118450     0.0001151600    -0.0000744400    -0.0001306000
  8      2.1000894640     7.1333601550     8.4897551200    -0.0000263400     0.0001006200    -0.0000946300
  8      1.3914349470     7.1333601550     1.7693791900     0.0000263400     0.0001006200     0.0000946300
  8      4.0430677410     6.8289921960     1.7200672360     0.0000901800    -0.0000178400     0.0000612400
  8     -0.5515431210     6.8289921960     8.5390672170    -0.0000901800    -0.0000178400    -0.0000612400
  8      2.4371706080     4.7019679920     1.7372205640    -0.0003206700     0.0003677100    -0.0004548000
  8      1.0543536180     4.7019679920     8.5219138890     0.0003206700     0.0003677100     0.0004548000
  8     -0.7647540640     2.4797990420     8.6436727270    -0.0001404600     0.0000525900     0.0004066500
  8      4.2562788460     2.4797990420     1.6154612650     0.0001404600     0.0000525900    -0.0004066500
  8     -0.1007860320     4.5575292090     4.0256967260     0.0001303100    -0.0000065600    -0.0006224000
  8      3.5923107570     4.5575292090     6.2334375840    -0.0001303100    -0.0000065600     0.0006224000
  8      2.6371550150     9.2518596260     4.1286077870    -0.0001078600     0.0000079000    -0.0000440000
  8      0.8543698700     9.2518596260     6.1305265230     0.0001078600     0.0000079000     0.0000440000
  1      0.8732798270     4.6115838860     4.1241218880    -0.0001463300    -0.0000061200     0.0001207400
  1      2.6182452060     4.6115838860     6.1350118070     0.0001463300    -0.0000061200    -0.0001207400
  1      2.6429334050     0.0977423420     3.1659072750     0.0001335700    -0.0001541400     0.0000785500
  1      0.8485911060     0.0977423420     7.0932273420    -0.0001335700    -0.0001541400    -0.0000785500
 22     -0.9170416550     3.1935278580     5.1295671550     0.0000000000    -0.0004079000     0.0000000000
 CONVCOORD
          43           1
 19      0.0000000000     4.5980525420     0.0000000000
 19      2.6628039430     0.0700578330     0.0000000000
 12     -0.9170416550    -0.0065034160     5.1295671550
 12     -0.9170416550     6.1548751420     5.1295671550
 12      1.7457622830     7.6416940090     5.1295671550
 12      1.7457622830     1.5831501320     5.1295671550
 14      0.0472446900     1.5392327320     2.3117331240
 14      3.4442799280     1.5392327320     7.9474013400
 14      3.5305048840     7.6946278720     7.8861950270
 14     -0.0389802620     7.6946278720     2.3729389650
 14      2.6396433380     6.1825139500     2.3680448690
 14      0.8518810970     6.1825139500     7.8910892770
 13      0.7337659540     3.0762885800     7.9420804090
 13      2.7577584570     3.0762885800     2.3170539010
  8     -0.0397654580     1.5825675870     3.9712894770
  8      3.5312899190     1.5825675870     6.2878445250
  8      3.5257681530     7.6845006160     6.2618401890
  8     -0.0342434530     7.6845006160     3.9972938130
  8      2.6895099590     6.2504008700     3.9738835300
  8      0.8020146080     6.2504008700     6.2852507700
  8      0.6469910310     2.9824474640     6.1763331210
  8      2.8445337500     2.9824474640     4.0828008820
  8      1.5337144270     1.9220360290     1.7930455180
  8      1.9578099620     1.9220360290     8.4660880220
  8     -0.2475406410     9.2241285850     1.8014223110
  8      3.7390652340     9.2241285850     8.4577118450
  8      2.1000894640     7.1333601550     8.4897551200
  8      1.3914349470     7.1333601550     1.7693791900
  8      4.0430677410     6.8289921960     1.7200672360
  8     -0.5515431210     6.8289921960     8.5390672170
  8      2.4371706080     4.7019679920     1.7372205640
  8      1.0543536180     4.7019679920     8.5219138890
  8     -0.7647540640     2.4797990420     8.6436727270
  8      4.2562788460     2.4797990420     1.6154612650
  8     -0.1007860320     4.5575292090     4.0256967260
  8      3.5923107570     4.5575292090     6.2334375840
  8      2.6371550150     0.0066012110     4.1286077870
  8      0.8543698700     0.0066012110     6.1305265230
  1      0.8732798270     4.6115838860     4.1241218880
  1      2.6182452060     4.6115838860     6.1350118070
  1      2.6429334050     0.0977423420     3.1659072750
  1      0.8485911060     0.0977423420     7.0932273420
 22     -0.9170416550     3.1935278580     5.1295671550
 RECIP-PRIMVEC
    0.1877720365   -0.0000000000    0.0335691012

    0.0000000000    0.1081635532   -0.0000000000

    0.0000000000    0.0000000000    0.0974740881

 RECIP-CONVVEC
    0.1877720365   -0.0000000000    0.0335691012

    0.0000000000    0.1081635532   -0.0000000000

    0.0000000000    0.0000000000    0.0974740881

 WIGNER-SEITZ-PRIMCELL
           4
 -0.2662803E+01 -0.4622629E+01 -0.4817469E+01  -0.3221851E+00 -0.9917295E-16 -0.9466767E+00
 -0.2662803E+01  0.4622629E+01 -0.4817469E+01  -0.3221851E+00 -0.9917295E-16 -0.9466767E+00
 -0.8287176E+00  0.4622629E+01 -0.5441668E+01  -0.3221851E+00 -0.9917295E-16 -0.9466767E+00
 -0.8287176E+00 -0.4622629E+01 -0.5441668E+01  -0.3221851E+00 -0.9917295E-16 -0.9466767E+00
           4
 -0.2662803E+01  0.4622629E+01 -0.4817469E+01  -0.1000000E+01 -0.4803427E-16  0.4427948E-32
 -0.2662803E+01 -0.4622629E+01 -0.4817469E+01  -0.1000000E+01 -0.4803427E-16  0.4427948E-32
 -0.2662803E+01 -0.4622629E+01  0.4817469E+01  -0.1000000E+01 -0.4803427E-16  0.4427948E-32
 -0.2662803E+01  0.4622629E+01  0.4817469E+01  -0.1000000E+01 -0.4803427E-16  0.4427948E-32
           6
  0.8287176E+00 -0.4622629E+01  0.5441668E+01   0.2708616E-15 -0.1000000E+01 -0.2112159E-15
 -0.2662803E+01 -0.4622629E+01  0.4817469E+01   0.2708616E-15 -0.1000000E+01 -0.2112159E-15
 -0.2662803E+01 -0.4622629E+01 -0.4817469E+01   0.2708616E-15 -0.1000000E+01 -0.2112159E-15
 -0.8287176E+00 -0.4622629E+01 -0.5441668E+01   0.2708616E-15 -0.1000000E+01 -0.2112159E-15
  0.2662803E+01 -0.4622629E+01 -0.4817469E+01   0.2708616E-15 -0.1000000E+01 -0.2112159E-15
  0.2662803E+01 -0.4622629E+01  0.4817469E+01   0.2708616E-15 -0.1000000E+01 -0.2112159E-15
           4
  0.2662803E+01  0.4622629E+01 -0.4817469E+01   0.1759856E+00  0.1083415E-15 -0.9843927E+00
  0.2662803E+01 -0.4622629E+01 -0.4817469E+01   0.1759856E+00  0.1083415E-15 -0.9843927E+00
 -0.8287176E+00 -0.4622629E+01 -0.5441668E+01   0.1759856E+00  0.1083415E-15 -0.9843927E+00
 -0.8287176E+00  0.4622629E+01 -0.5441668E+01   0.1759856E+00  0.1083415E-15 -0.9843927E+00
           4
 -0.2662803E+01  0.4622629E+01  0.4817469E+01  -0.1759856E+00 -0.1083415E-15  0.9843927E+00
 -0.2662803E+01 -0.4622629E+01  0.4817469E+01  -0.1759856E+00 -0.1083415E-15  0.9843927E+00
  0.8287176E+00 -0.4622629E+01  0.5441668E+01  -0.1759856E+00 -0.1083415E-15  0.9843927E+00
  0.8287176E+00  0.4622629E+01  0.5441668E+01  -0.1759856E+00 -0.1083415E-15  0.9843927E+00
           6
  0.2662803E+01  0.4622629E+01 -0.4817469E+01  -0.1667751E-15  0.1000000E+01  0.1068729E-14
 -0.8287176E+00  0.4622629E+01 -0.5441668E+01  -0.1667751E-15  0.1000000E+01  0.1068729E-14
 -0.2662803E+01  0.4622629E+01 -0.4817469E+01  -0.1667751E-15  0.1000000E+01  0.1068729E-14
 -0.2662803E+01  0.4622629E+01  0.4817469E+01  -0.1667751E-15  0.1000000E+01  0.1068729E-14
  0.8287176E+00  0.4622629E+01  0.5441668E+01  -0.1667751E-15  0.1000000E+01  0.1068729E-14
  0.2662803E+01  0.4622629E+01  0.4817469E+01  -0.1667751E-15  0.1000000E+01  0.1068729E-14
           4
  0.2662803E+01  0.4622629E+01  0.4817469E+01   0.1000000E+01  0.4803427E-16  0.4427948E-32
  0.2662803E+01 -0.4622629E+01  0.4817469E+01   0.1000000E+01  0.4803427E-16  0.4427948E-32
  0.2662803E+01 -0.4622629E+01 -0.4817469E+01   0.1000000E+01  0.4803427E-16  0.4427948E-32
  0.2662803E+01  0.4622629E+01 -0.4817469E+01   0.1000000E+01  0.4803427E-16  0.4427948E-32
           4
  0.8287176E+00 -0.4622629E+01  0.5441668E+01   0.3221851E+00 -0.3574362E-16  0.9466767E+00
  0.2662803E+01 -0.4622629E+01  0.4817469E+01   0.3221851E+00 -0.3574362E-16  0.9466767E+00
  0.2662803E+01  0.4622629E+01  0.4817469E+01   0.3221851E+00 -0.3574362E-16  0.9466767E+00
  0.8287176E+00  0.4622629E+01  0.5441668E+01   0.3221851E+00 -0.3574362E-16  0.9466767E+00
 WIGNER-SEITZ-PRIMCELL_END
 WIGNER-SEITZ-CONVCELL
           4
 -0.2662803E+01 -0.4622629E+01 -0.4817469E+01  -0.3221851E+00 -0.9917295E-16 -0.9466767E+00
 -0.2662803E+01  0.4622629E+01 -0.4817469E+01  -0.3221851E+00 -0.9917295E-16 -0.9466767E+00
 -0.8287176E+00  0.4622629E+01 -0.5441668E+01  -0.3221851E+00 -0.9917295E-16 -0.9466767E+00
 -0.8287176E+00 -0.4622629E+01 -0.5441668E+01  -0.3221851E+00 -0.9917295E-16 -0.9466767E+00
           4
 -0.2662803E+01  0.4622629E+01 -0.4817469E+01  -0.1000000E+01 -0.4803427E-16  0.4427948E-32
 -0.2662803E+01 -0.4622629E+01 -0.4817469E+01  -0.1000000E+01 -0.4803427E-16  0.4427948E-32
 -0.2662803E+01 -0.4622629E+01  0.4817469E+01  -0.1000000E+01 -0.4803427E-16  0.4427948E-32
 -0.2662803E+01  0.4622629E+01  0.4817469E+01  -0.1000000E+01 -0.4803427E-16  0.4427948E-32
           6
  0.8287176E+00 -0.4622629E+01  0.5441668E+01   0.2708616E-15 -0.1000000E+01 -0.2112159E-15
 -0.2662803E+01 -0.4622629E+01  0.4817469E+01   0.2708616E-15 -0.1000000E+01 -0.2112159E-15
 -0.2662803E+01 -0.4622629E+01 -0.4817469E+01   0.2708616E-15 -0.1000000E+01 -0.2112159E-15
 -0.8287176E+00 -0.4622629E+01 -0.5441668E+01   0.2708616E-15 -0.1000000E+01 -0.2112159E-15
  0.2662803E+01 -0.4622629E+01 -0.4817469E+01   0.2708616E-15 -0.1000000E+01 -0.2112159E-15
  0.2662803E+01 -0.4622629E+01  0.4817469E+01   0.2708616E-15 -0.1000000E+01 -0.2112159E-15
           4
  0.2662803E+01  0.4622629E+01 -0.4817469E+01   0.1759856E+00  0.1083415E-15 -0.9843927E+00
  0.2662803E+01 -0.4622629E+01 -0.4817469E+01   0.1759856E+00  0.1083415E-15 -0.9843927E+00
 -0.8287176E+00 -0.4622629E+01 -0.5441668E+01   0.1759856E+00  0.1083415E-15 -0.9843927E+00
 -0.8287176E+00  0.4622629E+01 -0.5441668E+01   0.1759856E+00  0.1083415E-15 -0.9843927E+00
           4
 -0.2662803E+01  0.4622629E+01  0.4817469E+01  -0.1759856E+00 -0.1083415E-15  0.9843927E+00
 -0.2662803E+01 -0.4622629E+01  0.4817469E+01  -0.1759856E+00 -0.1083415E-15  0.9843927E+00
  0.8287176E+00 -0.4622629E+01  0.5441668E+01  -0.1759856E+00 -0.1083415E-15  0.9843927E+00
  0.8287176E+00  0.4622629E+01  0.5441668E+01  -0.1759856E+00 -0.1083415E-15  0.9843927E+00
           6
  0.2662803E+01  0.4622629E+01 -0.4817469E+01  -0.1667751E-15  0.1000000E+01  0.1068729E-14
 -0.8287176E+00  0.4622629E+01 -0.5441668E+01  -0.1667751E-15  0.1000000E+01  0.1068729E-14
 -0.2662803E+01  0.4622629E+01 -0.4817469E+01  -0.1667751E-15  0.1000000E+01  0.1068729E-14
 -0.2662803E+01  0.4622629E+01  0.4817469E+01  -0.1667751E-15  0.1000000E+01  0.1068729E-14
  0.8287176E+00  0.4622629E+01  0.5441668E+01  -0.1667751E-15  0.1000000E+01  0.1068729E-14
  0.2662803E+01  0.4622629E+01  0.4817469E+01  -0.1667751E-15  0.1000000E+01  0.1068729E-14
           4
  0.2662803E+01  0.4622629E+01  0.4817469E+01   0.1000000E+01  0.4803427E-16  0.4427948E-32
  0.2662803E+01 -0.4622629E+01  0.4817469E+01   0.1000000E+01  0.4803427E-16  0.4427948E-32
  0.2662803E+01 -0.4622629E+01 -0.4817469E+01   0.1000000E+01  0.4803427E-16  0.4427948E-32
  0.2662803E+01  0.4622629E+01 -0.4817469E+01   0.1000000E+01  0.4803427E-16  0.4427948E-32
           4
  0.8287176E+00 -0.4622629E+01  0.5441668E+01   0.3221851E+00 -0.3574362E-16  0.9466767E+00
  0.2662803E+01 -0.4622629E+01  0.4817469E+01   0.3221851E+00 -0.3574362E-16  0.9466767E+00
  0.2662803E+01  0.4622629E+01  0.4817469E+01   0.3221851E+00 -0.3574362E-16  0.9466767E+00
  0.8287176E+00  0.4622629E+01  0.5441668E+01   0.3221851E+00 -0.3574362E-16  0.9466767E+00
 WIGNER-SEITZ-CONVCELL_END
 BRILLOUIN-ZONE-PRIMCELL
           4
  0.9959835E-01  0.5408178E-01 -0.1516794E-01   0.9466767E+00  0.0000000E+00 -0.3221851E+00
  0.9959835E-01 -0.5408178E-01 -0.1516794E-01   0.9466767E+00  0.0000000E+00 -0.3221851E+00
  0.8817368E-01 -0.5408178E-01 -0.4873704E-01   0.9466767E+00  0.0000000E+00 -0.3221851E+00
  0.8817368E-01  0.5408178E-01 -0.4873704E-01   0.9466767E+00  0.0000000E+00 -0.3221851E+00
           4
 -0.8817368E-01 -0.5408178E-01 -0.4873704E-01   0.0000000E+00  0.0000000E+00 -0.1000000E+01
 -0.8817368E-01  0.5408178E-01 -0.4873704E-01   0.0000000E+00  0.0000000E+00 -0.1000000E+01
  0.8817368E-01  0.5408178E-01 -0.4873704E-01   0.0000000E+00  0.0000000E+00 -0.1000000E+01
  0.8817368E-01 -0.5408178E-01 -0.4873704E-01   0.0000000E+00  0.0000000E+00 -0.1000000E+01
           6
  0.8817368E-01 -0.5408178E-01  0.4873704E-01   0.0000000E+00 -0.1000000E+01  0.2930364E-15
 -0.8817368E-01 -0.5408178E-01  0.4873704E-01   0.0000000E+00 -0.1000000E+01  0.2930364E-15
 -0.9959835E-01 -0.5408178E-01  0.1516794E-01   0.0000000E+00 -0.1000000E+01  0.2930364E-15
 -0.8817368E-01 -0.5408178E-01 -0.4873704E-01   0.0000000E+00 -0.1000000E+01  0.2930364E-15
  0.8817368E-01 -0.5408178E-01 -0.4873704E-01   0.0000000E+00 -0.1000000E+01  0.2930364E-15
  0.9959835E-01 -0.5408178E-01 -0.1516794E-01   0.0000000E+00 -0.1000000E+01  0.2930364E-15
           4
  0.8817368E-01 -0.5408178E-01  0.4873704E-01   0.9843927E+00 -0.1158042E-16  0.1759856E+00
  0.9959835E-01 -0.5408178E-01 -0.1516794E-01   0.9843927E+00 -0.1158042E-16  0.1759856E+00
  0.9959835E-01  0.5408178E-01 -0.1516794E-01   0.9843927E+00 -0.1158042E-16  0.1759856E+00
  0.8817368E-01  0.5408178E-01  0.4873704E-01   0.9843927E+00 -0.1158042E-16  0.1759856E+00
           4
 -0.9959835E-01  0.5408178E-01  0.1516794E-01  -0.9843927E+00  0.1989206E-15 -0.1759856E+00
 -0.8817368E-01  0.5408178E-01 -0.4873704E-01  -0.9843927E+00  0.1989206E-15 -0.1759856E+00
 -0.8817368E-01 -0.5408178E-01 -0.4873704E-01  -0.9843927E+00  0.1989206E-15 -0.1759856E+00
 -0.9959835E-01 -0.5408178E-01  0.1516794E-01  -0.9843927E+00  0.1989206E-15 -0.1759856E+00
           6
  0.9959835E-01  0.5408178E-01 -0.1516794E-01  -0.0000000E+00  0.1000000E+01  0.2930364E-15
  0.8817368E-01  0.5408178E-01 -0.4873704E-01  -0.0000000E+00  0.1000000E+01  0.2930364E-15
 -0.8817368E-01  0.5408178E-01 -0.4873704E-01  -0.0000000E+00  0.1000000E+01  0.2930364E-15
 -0.9959835E-01  0.5408178E-01  0.1516794E-01  -0.0000000E+00  0.1000000E+01  0.2930364E-15
 -0.8817368E-01  0.5408178E-01  0.4873704E-01  -0.0000000E+00  0.1000000E+01  0.2930364E-15
  0.8817368E-01  0.5408178E-01  0.4873704E-01  -0.0000000E+00  0.1000000E+01  0.2930364E-15
           4
  0.8817368E-01 -0.5408178E-01  0.4873704E-01  -0.0000000E+00 -0.0000000E+00  0.1000000E+01
  0.8817368E-01  0.5408178E-01  0.4873704E-01  -0.0000000E+00 -0.0000000E+00  0.1000000E+01
 -0.8817368E-01  0.5408178E-01  0.4873704E-01  -0.0000000E+00 -0.0000000E+00  0.1000000E+01
 -0.8817368E-01 -0.5408178E-01  0.4873704E-01  -0.0000000E+00 -0.0000000E+00  0.1000000E+01
           4
 -0.8817368E-01  0.5408178E-01  0.4873704E-01  -0.9466767E+00 -0.1268753E-15  0.3221851E+00
 -0.9959835E-01  0.5408178E-01  0.1516794E-01  -0.9466767E+00 -0.1268753E-15  0.3221851E+00
 -0.9959835E-01 -0.5408178E-01  0.1516794E-01  -0.9466767E+00 -0.1268753E-15  0.3221851E+00
 -0.8817368E-01 -0.5408178E-01  0.4873704E-01  -0.9466767E+00 -0.1268753E-15  0.3221851E+00
 BRILLOUIN-ZONE-PRIMCELL_END
 BRILLOUIN-ZONE-CONVCELL
           4
  0.9959835E-01  0.5408178E-01 -0.1516794E-01   0.9466767E+00  0.0000000E+00 -0.3221851E+00
  0.9959835E-01 -0.5408178E-01 -0.1516794E-01   0.9466767E+00  0.0000000E+00 -0.3221851E+00
  0.8817368E-01 -0.5408178E-01 -0.4873704E-01   0.9466767E+00  0.0000000E+00 -0.3221851E+00
  0.8817368E-01  0.5408178E-01 -0.4873704E-01   0.9466767E+00  0.0000000E+00 -0.3221851E+00
           4
 -0.8817368E-01 -0.5408178E-01 -0.4873704E-01   0.0000000E+00  0.0000000E+00 -0.1000000E+01
 -0.8817368E-01  0.5408178E-01 -0.4873704E-01   0.0000000E+00  0.0000000E+00 -0.1000000E+01
  0.8817368E-01  0.5408178E-01 -0.4873704E-01   0.0000000E+00  0.0000000E+00 -0.1000000E+01
  0.8817368E-01 -0.5408178E-01 -0.4873704E-01   0.0000000E+00  0.0000000E+00 -0.1000000E+01
           6
  0.8817368E-01 -0.5408178E-01  0.4873704E-01   0.0000000E+00 -0.1000000E+01  0.2930364E-15
 -0.8817368E-01 -0.5408178E-01  0.4873704E-01   0.0000000E+00 -0.1000000E+01  0.2930364E-15
 -0.9959835E-01 -0.5408178E-01  0.1516794E-01   0.0000000E+00 -0.1000000E+01  0.2930364E-15
 -0.8817368E-01 -0.5408178E-01 -0.4873704E-01   0.0000000E+00 -0.1000000E+01  0.2930364E-15
  0.8817368E-01 -0.5408178E-01 -0.4873704E-01   0.0000000E+00 -0.1000000E+01  0.2930364E-15
  0.9959835E-01 -0.5408178E-01 -0.1516794E-01   0.0000000E+00 -0.1000000E+01  0.2930364E-15
           4
  0.8817368E-01 -0.5408178E-01  0.4873704E-01   0.9843927E+00 -0.1158042E-16  0.1759856E+00
  0.9959835E-01 -0.5408178E-01 -0.1516794E-01   0.9843927E+00 -0.1158042E-16  0.1759856E+00
  0.9959835E-01  0.5408178E-01 -0.1516794E-01   0.9843927E+00 -0.1158042E-16  0.1759856E+00
  0.8817368E-01  0.5408178E-01  0.4873704E-01   0.9843927E+00 -0.1158042E-16  0.1759856E+00
           4
 -0.9959835E-01  0.5408178E-01  0.1516794E-01  -0.9843927E+00  0.1989206E-15 -0.1759856E+00
 -0.8817368E-01  0.5408178E-01 -0.4873704E-01  -0.9843927E+00  0.1989206E-15 -0.1759856E+00
 -0.8817368E-01 -0.5408178E-01 -0.4873704E-01  -0.9843927E+00  0.1989206E-15 -0.1759856E+00
 -0.9959835E-01 -0.5408178E-01  0.1516794E-01  -0.9843927E+00  0.1989206E-15 -0.1759856E+00
           6
  0.9959835E-01  0.5408178E-01 -0.1516794E-01  -0.0000000E+00  0.1000000E+01  0.2930364E-15
  0.8817368E-01  0.5408178E-01 -0.4873704E-01  -0.0000000E+00  0.1000000E+01  0.2930364E-15
 -0.8817368E-01  0.5408178E-01 -0.4873704E-01  -0.0000000E+00  0.1000000E+01  0.2930364E-15
 -0.9959835E-01  0.5408178E-01  0.1516794E-01  -0.0000000E+00  0.1000000E+01  0.2930364E-15
 -0.8817368E-01  0.5408178E-01  0.4873704E-01  -0.0000000E+00  0.1000000E+01  0.2930364E-15
  0.8817368E-01  0.5408178E-01  0.4873704E-01  -0.0000000E+00  0.1000000E+01  0.2930364E-15
           4
  0.8817368E-01 -0.5408178E-01  0.4873704E-01  -0.0000000E+00 -0.0000000E+00  0.1000000E+01
  0.8817368E-01  0.5408178E-01  0.4873704E-01  -0.0000000E+00 -0.0000000E+00  0.1000000E+01
 -0.8817368E-01  0.5408178E-01  0.4873704E-01  -0.0000000E+00 -0.0000000E+00  0.1000000E+01
 -0.8817368E-01 -0.5408178E-01  0.4873704E-01  -0.0000000E+00 -0.0000000E+00  0.1000000E+01
           4
 -0.8817368E-01  0.5408178E-01  0.4873704E-01  -0.9466767E+00 -0.1268753E-15  0.3221851E+00
 -0.9959835E-01  0.5408178E-01  0.1516794E-01  -0.9466767E+00 -0.1268753E-15  0.3221851E+00
 -0.9959835E-01 -0.5408178E-01  0.1516794E-01  -0.9466767E+00 -0.1268753E-15  0.3221851E+00
 -0.8817368E-01 -0.5408178E-01  0.4873704E-01  -0.9466767E+00 -0.1268753E-15  0.3221851E+00
 BRILLOUIN-ZONE-CONVCELL_END
 ATOMS
   19    0.0000000000    4.5980525420    0.0000000000    0.0000000000   -0.0000179300    0.0000000000
   19    2.6628039430    0.0700578330    0.0000000000    0.0000000000   -0.0002010300    0.0000000000
   12   -0.9170416550    6.1548751420    5.1295671550    0.0000000000   -0.0004884800    0.0000000000
   12    1.7457622830    7.6416940090    5.1295671550    0.0000000000   -0.0007017800    0.0000000000
   12    1.7457622830    1.5831501320    5.1295671550    0.0000000000    0.0001517200    0.0000000000
   14    0.0472446900    1.5392327320    2.3117331240   -0.0001029600   -0.0002778500    0.0000647400
   14    3.4442799280    1.5392327320    7.9474013400    0.0001029600   -0.0002778500   -0.0000647400
   14    3.5305048840    7.6946278720    7.8861950270   -0.0001139000   -0.0001205600    0.0000430200
   14   -0.0389802620    7.6946278720    2.3729389650    0.0001139000   -0.0001205600   -0.0000430200
   14    2.6396433380    6.1825139500    2.3680448690    0.0000601100    0.0004564400   -0.0000151000
   14    0.8518810970    6.1825139500    7.8910892770   -0.0000601100    0.0004564400    0.0000151000
   13    0.7337659540    3.0762885800    7.9420804090   -0.0001515200    0.0003358100   -0.0001292700
   13    2.7577584570    3.0762885800    2.3170539010    0.0001515200    0.0003358100    0.0001292700
    8   -0.0397654580    1.5825675870    3.9712894770    0.0000104200    0.0001354000    0.0001171500
    8    3.5312899190    1.5825675870    6.2878445250   -0.0000104200    0.0001354000   -0.0001171500
    8    3.5257681530    7.6845006160    6.2618401890    0.0003030300   -0.0001258300    0.0000209600
    8   -0.0342434530    7.6845006160    3.9972938130   -0.0003030300   -0.0001258300   -0.0000209600
    8    2.6895099590    6.2504008700    3.9738835300   -0.0006212100   -0.0000828000    0.0001118400
    8    0.8020146080    6.2504008700    6.2852507700    0.0006212100   -0.0000828000   -0.0001118400
    8    0.6469910310    2.9824474640    6.1763331210   -0.0000155800   -0.0001757400   -0.0004111300
    8    2.8445337500    2.9824474640    4.0828008820    0.0000155800   -0.0001757400    0.0004111300
    8    1.5337144270    1.9220360290    1.7930455180   -0.0000827500    0.0001715400   -0.0001268600
    8    1.9578099620    1.9220360290    8.4660880220    0.0000827500    0.0001715400    0.0001268600
    8   -0.2475406410    9.2241285850    1.8014223110   -0.0001151600   -0.0000744400    0.0001306000
    8    3.7390652340    9.2241285850    8.4577118450    0.0001151600   -0.0000744400   -0.0001306000
    8    2.1000894640    7.1333601550    8.4897551200   -0.0000263400    0.0001006200   -0.0000946300
    8    1.3914349470    7.1333601550    1.7693791900    0.0000263400    0.0001006200    0.0000946300
    8    4.0430677410    6.8289921960    1.7200672360    0.0000901800   -0.0000178400    0.0000612400
    8   -0.5515431210    6.8289921960    8.5390672170   -0.0000901800   -0.0000178400   -0.0000612400
    8    2.4371706080    4.7019679920    1.7372205640   -0.0003206700    0.0003677100   -0.0004548000
    8    1.0543536180    4.7019679920    8.5219138890    0.0003206700    0.0003677100    0.0004548000
    8   -0.7647540640    2.4797990420    8.6436727270   -0.0001404600    0.0000525900    0.0004066500
    8    4.2562788460    2.4797990420    1.6154612650    0.0001404600    0.0000525900   -0.0004066500
    8   -0.1007860320    4.5575292090    4.0256967260    0.0001303100   -0.0000065600   -0.0006224000
    8    3.5923107570    4.5575292090    6.2334375840   -0.0001303100   -0.0000065600    0.0006224000
    8    2.6371550150    0.0066012110    4.1286077870   -0.0001078600    0.0000079000   -0.0000440000
    8    0.8543698700    0.0066012110    6.1305265230    0.0001078600    0.0000079000    0.0000440000
    1    0.8732798270    4.6115838860    4.1241218880   -0.0001463300   -0.0000061200    0.0001207400
    1    2.6182452060    4.6115838860    6.1350118070    0.0001463300   -0.0000061200   -0.0001207400
    1    2.6429334050    0.0977423420    3.1659072750    0.0001335700   -0.0001541400    0.0000785500
    1    0.8485911060    0.0977423420    7.0932273420   -0.0001335700   -0.0001541400   -0.0000785500
   22   -0.9170416550    3.1935278580    5.1295671550    0.0000000000   -0.0004079000    0.0000000000
   19   -1.8340856630    4.5980525420   10.2591367520    0.0000000000   -0.0000179300    0.0000000000
   19    0.8287182800    0.0700578330   10.2591367520    0.0000000000   -0.0002010300    0.0000000000
   12   -0.9170416550    9.2387549990    5.1295671550    0.0000000000    0.0004931000    0.0000000000
   19    5.3256066180    4.5980525420    0.0000000000    0.0000000000   -0.0000179300    0.0000000000
   12    4.4085649630    6.1548751420    5.1295671550    0.0000000000   -0.0004884800    0.0000000000
   22    4.4085649630    3.1935278580    5.1295671550    0.0000000000   -0.0004079000    0.0000000000
   19    3.4915209550    4.5980525420   10.2591367520    0.0000000000   -0.0000179300    0.0000000000
   12    4.4085649630    9.2387549990    5.1295671550    0.0000000000    0.0004931000    0.0000000000
 FRAMES
1      0.0000000000    0.0000000000    0.0000000000      5.3256066180    0.0000000000    0.0000000000
1      0.0000000000    0.0000000000    0.0000000000      0.0000000000    9.2452584150    0.0000000000
1      0.0000000000    0.0000000000    0.0000000000     -1.8340856630    0.0000000000   10.2591367520
1     -1.8340856630    0.0000000000   10.2591367520      3.4915209550    0.0000000000   10.2591367520
1     -1.8340856630    0.0000000000   10.2591367520     -1.8340856630    9.2452584150   10.2591367520
1      0.0000000000    9.2452584150    0.0000000000      5.3256066180    9.2452584150    0.0000000000
1      0.0000000000    9.2452584150    0.0000000000     -1.8340856630    9.2452584150   10.2591367520
1     -1.8340856630    9.2452584150   10.2591367520      3.4915209550    9.2452584150   10.2591367520
1      5.3256066180    0.0000000000    0.0000000000      5.3256066180    9.2452584150    0.0000000000
1      5.3256066180    0.0000000000    0.0000000000      3.4915209550    0.0000000000   10.2591367520
1      3.4915209550    0.0000000000   10.2591367520      3.4915209550    9.2452584150   10.2591367520
1      5.3256066180    9.2452584150    0.0000000000      3.4915209550    9.2452584150   10.2591367520
