 INFO
nunit      1    1    1
unit   cell
celltype   primcell
shape   parapipedal
 END_INFO
 DIM-GROUP
           3           1
 PRIMVEC
    5.2989900630    0.0000000000    0.0000000000
    0.0000000000    9.1953692500    0.0000000000
   -1.8126838200    0.0000000000   10.0463340640
 CONVVEC
    5.2989900630    0.0000000000    0.0000000000
    0.0000000000    9.1953692500    0.0000000000
   -1.8126838200    0.0000000000   10.0463340640
 PRIMCOORD
          44           1
 19      0.0000000000     4.5360355510     0.0000000000     0.0000000000     0.0003679600     0.0000000000
 19      2.6494950310     0.0429418270     0.0000000000     0.0000000000    -0.0006582800     0.0000000000
 12     -0.9063419100     0.0368048360     5.0231670320     0.0000000000    -0.0004179900     0.0000000000
 12     -0.9063419100     3.0578638080     5.0231670320     0.0000000000     0.0004708800     0.0000000000
 12     -0.9063419100     6.1232059290     5.0231670320     0.0000000000    -0.0008674300     0.0000000000
 12      1.7431531220     7.6803808950     5.0231670320     0.0000000000    -0.0000238000     0.0000000000
 12      1.7431531220     1.5575165300     5.0231670320     0.0000000000     0.0000365100     0.0000000000
 14      0.0361645750     1.5180676270     2.2300219660    -0.0001753700     0.0000183500    -0.0002222200
 14      3.4501415400     1.5180676270     7.8163124000     0.0001753700     0.0000183500     0.0002222200
 14      3.5541449050     7.6716068930     7.7564359610     0.0002616800     0.0000093900     0.0003727800
 14     -0.0678386610     7.6716068930     2.2898981040    -0.0002616800     0.0000093900    -0.0003727800
 14      2.5811549580     6.1373056470     2.2702320810    -0.0004075100     0.0000202200     0.0000811300
 14      0.9051513130     6.1373056470     7.7761018330     0.0004075100     0.0000202200    -0.0000811300
 13      0.7971760330     3.0458981150     7.7993145630    -0.0001111400    -0.0005557800    -0.0000859600
 13      2.6891302100     3.0458981150     2.2470195010     0.0001111400    -0.0005557800     0.0000859600
  8     -0.0208218840     1.5006408040     3.8619769610    -0.0000123200     0.0001558000    -0.0005649600
  8      3.5071279160     1.5006408040     6.1843573950     0.0000123200     0.0001558000     0.0005649600
  8      3.5254502790     7.6634902360     6.1380036220     0.0002715300    -0.0003618400     0.0007021900
  8     -0.0391440360     7.6634902360     3.9083304430    -0.0002715300    -0.0003618400    -0.0007021900
  8      2.6234206820     6.1961989460     3.8937224010     0.0003029900     0.0001707900    -0.0000202200
  8      0.8628855610     6.1961989460     6.1526116640    -0.0003029900     0.0001707900     0.0000202200
  8      0.8141361350     3.0203559880     6.0646544580    -0.0009549700    -0.0006196200    -0.0000899400
  8      2.6721701080     3.0203559880     3.9816796070     0.0009549700    -0.0006196200     0.0000899400
  8      1.5142621360     1.8698558370     1.6503913140    -0.0002604100    -0.0003910600     0.0000175100
  8      1.9720441620     1.8698558370     8.3959424490     0.0002604100    -0.0003910600    -0.0000175100
  8      4.9712823930     9.1708042330     1.6765964560    -0.0000286600     0.0001279300    -0.0007352700
  8     -1.4849761220     9.1708042330     8.3697374580     0.0000286600     0.0001279300     0.0007352700
  8      2.1150766070     7.1264731210     8.3624387390     0.0005974300     0.0005818600    -0.0000304900
  8      1.3712296360     7.1264731210     1.6838953260    -0.0005974300     0.0005818600     0.0000304900
  8      4.0186375850     6.7334951010     1.6687772560     0.0001353700     0.0002288200     0.0007084500
  8     -0.5323313410     6.7334951010     8.3775568090    -0.0001353700     0.0002288200    -0.0007084500
  8      2.3367891680     4.6720452140     1.6333136280    -0.0005886500     0.0003500800    -0.0000949000
  8      1.1495168890     4.6720452140     8.4130205870     0.0005886500     0.0003500800     0.0000949000
  8     -0.7617158330     2.5426967610     8.4559651360    -0.0004456700     0.0001930600    -0.0004454400
  8      4.2480221560     2.5426967610     1.5903689280     0.0004456700     0.0001930600     0.0004454400
  8     -0.0838341540     4.6316871870     3.9341970170     0.0002404700    -0.0000776200     0.0003379800
  8      3.5701404770     4.6316871870     6.1121370470    -0.0002404700    -0.0000776200    -0.0003379800
  8      2.6341055560     9.1880242780     3.9903436750    -0.0001112500    -0.0001746700     0.0001781700
  8      0.8522007420     9.1880242780     6.0559900880     0.0001112500    -0.0001746700    -0.0001781700
  1     -0.0021800310     4.5561906800     2.9742730760     0.0007227900    -0.0001109900     0.0004024100
  1      3.4884864330     4.5561906800     7.0720609890    -0.0007227900    -0.0001109900    -0.0004024100
  1      2.6092737090     0.1255083720     3.0339042610    -0.0000193900     0.0006028900     0.0000089600
  1      0.8770325350     0.1255083720     7.0124298040     0.0000193900     0.0006028900    -0.0000089600
 26      1.7431531220     4.5226385570     5.0231670320     0.0000000000     0.0007569200     0.0000000000
 CONVCOORD
          44           1
 19      0.0000000000     4.5360355510     0.0000000000
 19      2.6494950310     0.0429418270     0.0000000000
 12     -0.9063419100     0.0368048360     5.0231670320
 12     -0.9063419100     3.0578638080     5.0231670320
 12     -0.9063419100     6.1232059290     5.0231670320
 12      1.7431531220     7.6803808950     5.0231670320
 12      1.7431531220     1.5575165300     5.0231670320
 14      0.0361645750     1.5180676270     2.2300219660
 14      3.4501415400     1.5180676270     7.8163124000
 14      3.5541449050     7.6716068930     7.7564359610
 14     -0.0678386610     7.6716068930     2.2898981040
 14      2.5811549580     6.1373056470     2.2702320810
 14      0.9051513130     6.1373056470     7.7761018330
 13      0.7971760330     3.0458981150     7.7993145630
 13      2.6891302100     3.0458981150     2.2470195010
  8     -0.0208218840     1.5006408040     3.8619769610
  8      3.5071279160     1.5006408040     6.1843573950
  8      3.5254502790     7.6634902360     6.1380036220
  8     -0.0391440360     7.6634902360     3.9083304430
  8      2.6234206820     6.1961989460     3.8937224010
  8      0.8628855610     6.1961989460     6.1526116640
  8      0.8141361350     3.0203559880     6.0646544580
  8      2.6721701080     3.0203559880     3.9816796070
  8      1.5142621360     1.8698558370     1.6503913140
  8      1.9720441620     1.8698558370     8.3959424490
  8      4.9712823930     9.1708042330     1.6765964560
  8     -1.4849761220     9.1708042330     8.3697374580
  8      2.1150766070     7.1264731210     8.3624387390
  8      1.3712296360     7.1264731210     1.6838953260
  8      4.0186375850     6.7334951010     1.6687772560
  8     -0.5323313410     6.7334951010     8.3775568090
  8      2.3367891680     4.6720452140     1.6333136280
  8      1.1495168890     4.6720452140     8.4130205870
  8     -0.7617158330     2.5426967610     8.4559651360
  8      4.2480221560     2.5426967610     1.5903689280
  8     -0.0838341540     4.6316871870     3.9341970170
  8      3.5701404770     4.6316871870     6.1121370470
  8      2.6341055560     9.1880242780     3.9903436750
  8      0.8522007420     9.1880242780     6.0559900880
  1     -0.0021800310     4.5561906800     2.9742730760
  1      3.4884864330     4.5561906800     7.0720609890
  1      2.6092737090     0.1255083720     3.0339042610
  1      0.8770325350     0.1255083720     7.0124298040
 26      1.7431531220     4.5226385570     5.0231670320
 RECIP-PRIMVEC
    0.1887152057   -0.0000000000    0.0340503310

    0.0000000000    0.1087503909   -0.0000000000

    0.0000000000    0.0000000000    0.0995387963

 RECIP-CONVVEC
    0.1887152057   -0.0000000000    0.0340503310

    0.0000000000    0.1087503909   -0.0000000000

    0.0000000000    0.0000000000    0.0995387963

 WIGNER-SEITZ-PRIMCELL
           4
 -0.2649495E+01  0.4597685E+01 -0.4708646E+01  -0.3278435E+00 -0.1009766E-15 -0.9447320E+00
 -0.8368112E+00  0.4597685E+01 -0.5337688E+01  -0.3278435E+00 -0.1009766E-15 -0.9447320E+00
 -0.8368112E+00 -0.4597685E+01 -0.5337688E+01  -0.3278435E+00 -0.1009766E-15 -0.9447320E+00
 -0.2649495E+01 -0.4597685E+01 -0.4708646E+01  -0.3278435E+00 -0.1009766E-15 -0.9447320E+00
           4
 -0.2649495E+01  0.4597685E+01 -0.4708646E+01  -0.1000000E+01  0.4829488E-16  0.4554862E-32
 -0.2649495E+01 -0.4597685E+01 -0.4708646E+01  -0.1000000E+01  0.4829488E-16  0.4554862E-32
 -0.2649495E+01 -0.4597685E+01  0.4708646E+01  -0.1000000E+01  0.4829488E-16  0.4554862E-32
 -0.2649495E+01  0.4597685E+01  0.4708646E+01  -0.1000000E+01  0.4829488E-16  0.4554862E-32
           6
  0.2649495E+01 -0.4597685E+01  0.4708646E+01  -0.0000000E+00 -0.1000000E+01  0.1065828E-14
  0.8368112E+00 -0.4597685E+01  0.5337688E+01  -0.0000000E+00 -0.1000000E+01  0.1065828E-14
 -0.2649495E+01 -0.4597685E+01  0.4708646E+01  -0.0000000E+00 -0.1000000E+01  0.1065828E-14
 -0.2649495E+01 -0.4597685E+01 -0.4708646E+01  -0.0000000E+00 -0.1000000E+01  0.1065828E-14
 -0.8368112E+00 -0.4597685E+01 -0.5337688E+01  -0.0000000E+00 -0.1000000E+01  0.1065828E-14
  0.2649495E+01 -0.4597685E+01 -0.4708646E+01  -0.0000000E+00 -0.1000000E+01  0.1065828E-14
           4
  0.2649495E+01 -0.4597685E+01 -0.4708646E+01   0.1775651E+00 -0.2181216E-15 -0.9841091E+00
 -0.8368112E+00 -0.4597685E+01 -0.5337688E+01   0.1775651E+00 -0.2181216E-15 -0.9841091E+00
 -0.8368112E+00  0.4597685E+01 -0.5337688E+01   0.1775651E+00 -0.2181216E-15 -0.9841091E+00
  0.2649495E+01  0.4597685E+01 -0.4708646E+01   0.1775651E+00 -0.2181216E-15 -0.9841091E+00
           4
 -0.2649495E+01  0.4597685E+01  0.4708646E+01  -0.1775651E+00 -0.0000000E+00  0.9841091E+00
 -0.2649495E+01 -0.4597685E+01  0.4708646E+01  -0.1775651E+00 -0.0000000E+00  0.9841091E+00
  0.8368112E+00 -0.4597685E+01  0.5337688E+01  -0.1775651E+00 -0.0000000E+00  0.9841091E+00
  0.8368112E+00  0.4597685E+01  0.5337688E+01  -0.1775651E+00 -0.0000000E+00  0.9841091E+00
           6
  0.2649495E+01  0.4597685E+01 -0.4708646E+01   0.0000000E+00  0.1000000E+01  0.1065828E-14
 -0.8368112E+00  0.4597685E+01 -0.5337688E+01   0.0000000E+00  0.1000000E+01  0.1065828E-14
 -0.2649495E+01  0.4597685E+01 -0.4708646E+01   0.0000000E+00  0.1000000E+01  0.1065828E-14
 -0.2649495E+01  0.4597685E+01  0.4708646E+01   0.0000000E+00  0.1000000E+01  0.1065828E-14
  0.8368112E+00  0.4597685E+01  0.5337688E+01   0.0000000E+00  0.1000000E+01  0.1065828E-14
  0.2649495E+01  0.4597685E+01  0.4708646E+01   0.0000000E+00  0.1000000E+01  0.1065828E-14
           4
  0.2649495E+01  0.4597685E+01  0.4708646E+01   0.1000000E+01 -0.4829488E-16  0.0000000E+00
  0.2649495E+01 -0.4597685E+01  0.4708646E+01   0.1000000E+01 -0.4829488E-16  0.0000000E+00
  0.2649495E+01 -0.4597685E+01 -0.4708646E+01   0.1000000E+01 -0.4829488E-16  0.0000000E+00
  0.2649495E+01  0.4597685E+01 -0.4708646E+01   0.1000000E+01 -0.4829488E-16  0.0000000E+00
           4
  0.8368112E+00 -0.4597685E+01  0.5337688E+01   0.3278435E+00  0.3334111E-16  0.9447320E+00
  0.2649495E+01 -0.4597685E+01  0.4708646E+01   0.3278435E+00  0.3334111E-16  0.9447320E+00
  0.2649495E+01  0.4597685E+01  0.4708646E+01   0.3278435E+00  0.3334111E-16  0.9447320E+00
  0.8368112E+00  0.4597685E+01  0.5337688E+01   0.3278435E+00  0.3334111E-16  0.9447320E+00
 WIGNER-SEITZ-PRIMCELL_END
 WIGNER-SEITZ-CONVCELL
           4
 -0.2649495E+01  0.4597685E+01 -0.4708646E+01  -0.3278435E+00 -0.1009766E-15 -0.9447320E+00
 -0.8368112E+00  0.4597685E+01 -0.5337688E+01  -0.3278435E+00 -0.1009766E-15 -0.9447320E+00
 -0.8368112E+00 -0.4597685E+01 -0.5337688E+01  -0.3278435E+00 -0.1009766E-15 -0.9447320E+00
 -0.2649495E+01 -0.4597685E+01 -0.4708646E+01  -0.3278435E+00 -0.1009766E-15 -0.9447320E+00
           4
 -0.2649495E+01  0.4597685E+01 -0.4708646E+01  -0.1000000E+01  0.4829488E-16  0.4554862E-32
 -0.2649495E+01 -0.4597685E+01 -0.4708646E+01  -0.1000000E+01  0.4829488E-16  0.4554862E-32
 -0.2649495E+01 -0.4597685E+01  0.4708646E+01  -0.1000000E+01  0.4829488E-16  0.4554862E-32
 -0.2649495E+01  0.4597685E+01  0.4708646E+01  -0.1000000E+01  0.4829488E-16  0.4554862E-32
           6
  0.2649495E+01 -0.4597685E+01  0.4708646E+01  -0.0000000E+00 -0.1000000E+01  0.1065828E-14
  0.8368112E+00 -0.4597685E+01  0.5337688E+01  -0.0000000E+00 -0.1000000E+01  0.1065828E-14
 -0.2649495E+01 -0.4597685E+01  0.4708646E+01  -0.0000000E+00 -0.1000000E+01  0.1065828E-14
 -0.2649495E+01 -0.4597685E+01 -0.4708646E+01  -0.0000000E+00 -0.1000000E+01  0.1065828E-14
 -0.8368112E+00 -0.4597685E+01 -0.5337688E+01  -0.0000000E+00 -0.1000000E+01  0.1065828E-14
  0.2649495E+01 -0.4597685E+01 -0.4708646E+01  -0.0000000E+00 -0.1000000E+01  0.1065828E-14
           4
  0.2649495E+01 -0.4597685E+01 -0.4708646E+01   0.1775651E+00 -0.2181216E-15 -0.9841091E+00
 -0.8368112E+00 -0.4597685E+01 -0.5337688E+01   0.1775651E+00 -0.2181216E-15 -0.9841091E+00
 -0.8368112E+00  0.4597685E+01 -0.5337688E+01   0.1775651E+00 -0.2181216E-15 -0.9841091E+00
  0.2649495E+01  0.4597685E+01 -0.4708646E+01   0.1775651E+00 -0.2181216E-15 -0.9841091E+00
           4
 -0.2649495E+01  0.4597685E+01  0.4708646E+01  -0.1775651E+00 -0.0000000E+00  0.9841091E+00
 -0.2649495E+01 -0.4597685E+01  0.4708646E+01  -0.1775651E+00 -0.0000000E+00  0.9841091E+00
  0.8368112E+00 -0.4597685E+01  0.5337688E+01  -0.1775651E+00 -0.0000000E+00  0.9841091E+00
  0.8368112E+00  0.4597685E+01  0.5337688E+01  -0.1775651E+00 -0.0000000E+00  0.9841091E+00
           6
  0.2649495E+01  0.4597685E+01 -0.4708646E+01   0.0000000E+00  0.1000000E+01  0.1065828E-14
 -0.8368112E+00  0.4597685E+01 -0.5337688E+01   0.0000000E+00  0.1000000E+01  0.1065828E-14
 -0.2649495E+01  0.4597685E+01 -0.4708646E+01   0.0000000E+00  0.1000000E+01  0.1065828E-14
 -0.2649495E+01  0.4597685E+01  0.4708646E+01   0.0000000E+00  0.1000000E+01  0.1065828E-14
  0.8368112E+00  0.4597685E+01  0.5337688E+01   0.0000000E+00  0.1000000E+01  0.1065828E-14
  0.2649495E+01  0.4597685E+01  0.4708646E+01   0.0000000E+00  0.1000000E+01  0.1065828E-14
           4
  0.2649495E+01  0.4597685E+01  0.4708646E+01   0.1000000E+01 -0.4829488E-16  0.0000000E+00
  0.2649495E+01 -0.4597685E+01  0.4708646E+01   0.1000000E+01 -0.4829488E-16  0.0000000E+00
  0.2649495E+01 -0.4597685E+01 -0.4708646E+01   0.1000000E+01 -0.4829488E-16  0.0000000E+00
  0.2649495E+01  0.4597685E+01 -0.4708646E+01   0.1000000E+01 -0.4829488E-16  0.0000000E+00
           4
  0.8368112E+00 -0.4597685E+01  0.5337688E+01   0.3278435E+00  0.3334111E-16  0.9447320E+00
  0.2649495E+01 -0.4597685E+01  0.4708646E+01   0.3278435E+00  0.3334111E-16  0.9447320E+00
  0.2649495E+01  0.4597685E+01  0.4708646E+01   0.3278435E+00  0.3334111E-16  0.9447320E+00
  0.8368112E+00  0.4597685E+01  0.5337688E+01   0.3278435E+00  0.3334111E-16  0.9447320E+00
 WIGNER-SEITZ-CONVCELL_END
 BRILLOUIN-ZONE-PRIMCELL
           4
  0.1002657E+00  0.5437520E-01 -0.1571907E-01   0.9447320E+00  0.5532186E-16 -0.3278435E+00
  0.1002657E+00 -0.5437520E-01 -0.1571907E-01   0.9447320E+00  0.5532186E-16 -0.3278435E+00
  0.8844948E-01 -0.5437520E-01 -0.4976940E-01   0.9447320E+00  0.5532186E-16 -0.3278435E+00
  0.8844948E-01  0.5437520E-01 -0.4976940E-01   0.9447320E+00  0.5532186E-16 -0.3278435E+00
           4
 -0.8844948E-01  0.5437520E-01 -0.4976940E-01   0.0000000E+00 -0.5426985E-16 -0.1000000E+01
  0.8844948E-01  0.5437520E-01 -0.4976940E-01   0.0000000E+00 -0.5426985E-16 -0.1000000E+01
  0.8844948E-01 -0.5437520E-01 -0.4976940E-01   0.0000000E+00 -0.5426985E-16 -0.1000000E+01
 -0.8844948E-01 -0.5437520E-01 -0.4976940E-01   0.0000000E+00 -0.5426985E-16 -0.1000000E+01
           6
  0.8844948E-01 -0.5437520E-01  0.4976940E-01   0.0000000E+00 -0.1000000E+01  0.2879941E-15
 -0.8844948E-01 -0.5437520E-01  0.4976940E-01   0.0000000E+00 -0.1000000E+01  0.2879941E-15
 -0.1002657E+00 -0.5437520E-01  0.1571907E-01   0.0000000E+00 -0.1000000E+01  0.2879941E-15
 -0.8844948E-01 -0.5437520E-01 -0.4976940E-01   0.0000000E+00 -0.1000000E+01  0.2879941E-15
  0.8844948E-01 -0.5437520E-01 -0.4976940E-01   0.0000000E+00 -0.1000000E+01  0.2879941E-15
  0.1002657E+00 -0.5437520E-01 -0.1571907E-01   0.0000000E+00 -0.1000000E+01  0.2879941E-15
           4
  0.8844948E-01  0.5437520E-01  0.4976940E-01   0.9841091E+00 -0.3370857E-15  0.1775651E+00
  0.8844948E-01 -0.5437520E-01  0.4976940E-01   0.9841091E+00 -0.3370857E-15  0.1775651E+00
  0.1002657E+00 -0.5437520E-01 -0.1571907E-01   0.9841091E+00 -0.3370857E-15  0.1775651E+00
  0.1002657E+00  0.5437520E-01 -0.1571907E-01   0.9841091E+00 -0.3370857E-15  0.1775651E+00
           4
 -0.8844948E-01  0.5437520E-01 -0.4976940E-01  -0.9841091E+00 -0.1498159E-15 -0.1775651E+00
 -0.8844948E-01 -0.5437520E-01 -0.4976940E-01  -0.9841091E+00 -0.1498159E-15 -0.1775651E+00
 -0.1002657E+00 -0.5437520E-01  0.1571907E-01  -0.9841091E+00 -0.1498159E-15 -0.1775651E+00
 -0.1002657E+00  0.5437520E-01  0.1571907E-01  -0.9841091E+00 -0.1498159E-15 -0.1775651E+00
           6
  0.1002657E+00  0.5437520E-01 -0.1571907E-01  -0.0000000E+00  0.1000000E+01  0.2879941E-15
  0.8844948E-01  0.5437520E-01 -0.4976940E-01  -0.0000000E+00  0.1000000E+01  0.2879941E-15
 -0.8844948E-01  0.5437520E-01 -0.4976940E-01  -0.0000000E+00  0.1000000E+01  0.2879941E-15
 -0.1002657E+00  0.5437520E-01  0.1571907E-01  -0.0000000E+00  0.1000000E+01  0.2879941E-15
 -0.8844948E-01  0.5437520E-01  0.4976940E-01  -0.0000000E+00  0.1000000E+01  0.2879941E-15
  0.8844948E-01  0.5437520E-01  0.4976940E-01  -0.0000000E+00  0.1000000E+01  0.2879941E-15
           4
  0.8844948E-01 -0.5437520E-01  0.4976940E-01  -0.0000000E+00 -0.0000000E+00  0.1000000E+01
  0.8844948E-01  0.5437520E-01  0.4976940E-01  -0.0000000E+00 -0.0000000E+00  0.1000000E+01
 -0.8844948E-01  0.5437520E-01  0.4976940E-01  -0.0000000E+00 -0.0000000E+00  0.1000000E+01
 -0.8844948E-01 -0.5437520E-01  0.4976940E-01  -0.0000000E+00 -0.0000000E+00  0.1000000E+01
           4
 -0.1002657E+00  0.5437520E-01  0.1571907E-01  -0.9447320E+00 -0.1383046E-15  0.3278435E+00
 -0.1002657E+00 -0.5437520E-01  0.1571907E-01  -0.9447320E+00 -0.1383046E-15  0.3278435E+00
 -0.8844948E-01 -0.5437520E-01  0.4976940E-01  -0.9447320E+00 -0.1383046E-15  0.3278435E+00
 -0.8844948E-01  0.5437520E-01  0.4976940E-01  -0.9447320E+00 -0.1383046E-15  0.3278435E+00
 BRILLOUIN-ZONE-PRIMCELL_END
 BRILLOUIN-ZONE-CONVCELL
           4
  0.1002657E+00  0.5437520E-01 -0.1571907E-01   0.9447320E+00  0.5532186E-16 -0.3278435E+00
  0.1002657E+00 -0.5437520E-01 -0.1571907E-01   0.9447320E+00  0.5532186E-16 -0.3278435E+00
  0.8844948E-01 -0.5437520E-01 -0.4976940E-01   0.9447320E+00  0.5532186E-16 -0.3278435E+00
  0.8844948E-01  0.5437520E-01 -0.4976940E-01   0.9447320E+00  0.5532186E-16 -0.3278435E+00
           4
 -0.8844948E-01  0.5437520E-01 -0.4976940E-01   0.0000000E+00 -0.5426985E-16 -0.1000000E+01
  0.8844948E-01  0.5437520E-01 -0.4976940E-01   0.0000000E+00 -0.5426985E-16 -0.1000000E+01
  0.8844948E-01 -0.5437520E-01 -0.4976940E-01   0.0000000E+00 -0.5426985E-16 -0.1000000E+01
 -0.8844948E-01 -0.5437520E-01 -0.4976940E-01   0.0000000E+00 -0.5426985E-16 -0.1000000E+01
           6
  0.8844948E-01 -0.5437520E-01  0.4976940E-01   0.0000000E+00 -0.1000000E+01  0.2879941E-15
 -0.8844948E-01 -0.5437520E-01  0.4976940E-01   0.0000000E+00 -0.1000000E+01  0.2879941E-15
 -0.1002657E+00 -0.5437520E-01  0.1571907E-01   0.0000000E+00 -0.1000000E+01  0.2879941E-15
 -0.8844948E-01 -0.5437520E-01 -0.4976940E-01   0.0000000E+00 -0.1000000E+01  0.2879941E-15
  0.8844948E-01 -0.5437520E-01 -0.4976940E-01   0.0000000E+00 -0.1000000E+01  0.2879941E-15
  0.1002657E+00 -0.5437520E-01 -0.1571907E-01   0.0000000E+00 -0.1000000E+01  0.2879941E-15
           4
  0.8844948E-01  0.5437520E-01  0.4976940E-01   0.9841091E+00 -0.3370857E-15  0.1775651E+00
  0.8844948E-01 -0.5437520E-01  0.4976940E-01   0.9841091E+00 -0.3370857E-15  0.1775651E+00
  0.1002657E+00 -0.5437520E-01 -0.1571907E-01   0.9841091E+00 -0.3370857E-15  0.1775651E+00
  0.1002657E+00  0.5437520E-01 -0.1571907E-01   0.9841091E+00 -0.3370857E-15  0.1775651E+00
           4
 -0.8844948E-01  0.5437520E-01 -0.4976940E-01  -0.9841091E+00 -0.1498159E-15 -0.1775651E+00
 -0.8844948E-01 -0.5437520E-01 -0.4976940E-01  -0.9841091E+00 -0.1498159E-15 -0.1775651E+00
 -0.1002657E+00 -0.5437520E-01  0.1571907E-01  -0.9841091E+00 -0.1498159E-15 -0.1775651E+00
 -0.1002657E+00  0.5437520E-01  0.1571907E-01  -0.9841091E+00 -0.1498159E-15 -0.1775651E+00
           6
  0.1002657E+00  0.5437520E-01 -0.1571907E-01  -0.0000000E+00  0.1000000E+01  0.2879941E-15
  0.8844948E-01  0.5437520E-01 -0.4976940E-01  -0.0000000E+00  0.1000000E+01  0.2879941E-15
 -0.8844948E-01  0.5437520E-01 -0.4976940E-01  -0.0000000E+00  0.1000000E+01  0.2879941E-15
 -0.1002657E+00  0.5437520E-01  0.1571907E-01  -0.0000000E+00  0.1000000E+01  0.2879941E-15
 -0.8844948E-01  0.5437520E-01  0.4976940E-01  -0.0000000E+00  0.1000000E+01  0.2879941E-15
  0.8844948E-01  0.5437520E-01  0.4976940E-01  -0.0000000E+00  0.1000000E+01  0.2879941E-15
           4
  0.8844948E-01 -0.5437520E-01  0.4976940E-01  -0.0000000E+00 -0.0000000E+00  0.1000000E+01
  0.8844948E-01  0.5437520E-01  0.4976940E-01  -0.0000000E+00 -0.0000000E+00  0.1000000E+01
 -0.8844948E-01  0.5437520E-01  0.4976940E-01  -0.0000000E+00 -0.0000000E+00  0.1000000E+01
 -0.8844948E-01 -0.5437520E-01  0.4976940E-01  -0.0000000E+00 -0.0000000E+00  0.1000000E+01
           4
 -0.1002657E+00  0.5437520E-01  0.1571907E-01  -0.9447320E+00 -0.1383046E-15  0.3278435E+00
 -0.1002657E+00 -0.5437520E-01  0.1571907E-01  -0.9447320E+00 -0.1383046E-15  0.3278435E+00
 -0.8844948E-01 -0.5437520E-01  0.4976940E-01  -0.9447320E+00 -0.1383046E-15  0.3278435E+00
 -0.8844948E-01  0.5437520E-01  0.4976940E-01  -0.9447320E+00 -0.1383046E-15  0.3278435E+00
 BRILLOUIN-ZONE-CONVCELL_END
 ATOMS
   19    0.0000000000    4.5360355510    0.0000000000    0.0000000000    0.0003679600    0.0000000000
   19    2.6494950310    0.0429418270    0.0000000000    0.0000000000   -0.0006582800    0.0000000000
   12   -0.9063419100    0.0368048360    5.0231670320    0.0000000000   -0.0004179900    0.0000000000
   12   -0.9063419100    3.0578638080    5.0231670320    0.0000000000    0.0004708800    0.0000000000
   12   -0.9063419100    6.1232059290    5.0231670320    0.0000000000   -0.0008674300    0.0000000000
   12    1.7431531220    7.6803808950    5.0231670320    0.0000000000   -0.0000238000    0.0000000000
   12    1.7431531220    1.5575165300    5.0231670320    0.0000000000    0.0000365100    0.0000000000
   14    0.0361645750    1.5180676270    2.2300219660   -0.0001753700    0.0000183500   -0.0002222200
   14    3.4501415400    1.5180676270    7.8163124000    0.0001753700    0.0000183500    0.0002222200
   14    3.5541449050    7.6716068930    7.7564359610    0.0002616800    0.0000093900    0.0003727800
   14   -0.0678386610    7.6716068930    2.2898981040   -0.0002616800    0.0000093900   -0.0003727800
   14    2.5811549580    6.1373056470    2.2702320810   -0.0004075100    0.0000202200    0.0000811300
   14    0.9051513130    6.1373056470    7.7761018330    0.0004075100    0.0000202200   -0.0000811300
   13    0.7971760330    3.0458981150    7.7993145630   -0.0001111400   -0.0005557800   -0.0000859600
   13    2.6891302100    3.0458981150    2.2470195010    0.0001111400   -0.0005557800    0.0000859600
    8   -0.0208218840    1.5006408040    3.8619769610   -0.0000123200    0.0001558000   -0.0005649600
    8    3.5071279160    1.5006408040    6.1843573950    0.0000123200    0.0001558000    0.0005649600
    8    3.5254502790    7.6634902360    6.1380036220    0.0002715300   -0.0003618400    0.0007021900
    8   -0.0391440360    7.6634902360    3.9083304430   -0.0002715300   -0.0003618400   -0.0007021900
    8    2.6234206820    6.1961989460    3.8937224010    0.0003029900    0.0001707900   -0.0000202200
    8    0.8628855610    6.1961989460    6.1526116640   -0.0003029900    0.0001707900    0.0000202200
    8    0.8141361350    3.0203559880    6.0646544580   -0.0009549700   -0.0006196200   -0.0000899400
    8    2.6721701080    3.0203559880    3.9816796070    0.0009549700   -0.0006196200    0.0000899400
    8    1.5142621360    1.8698558370    1.6503913140   -0.0002604100   -0.0003910600    0.0000175100
    8    1.9720441620    1.8698558370    8.3959424490    0.0002604100   -0.0003910600   -0.0000175100
    8    4.9712823930    9.1708042330    1.6765964560   -0.0000286600    0.0001279300   -0.0007352700
    8   -1.4849761220    9.1708042330    8.3697374580    0.0000286600    0.0001279300    0.0007352700
    8    2.1150766070    7.1264731210    8.3624387390    0.0005974300    0.0005818600   -0.0000304900
    8    1.3712296360    7.1264731210    1.6838953260   -0.0005974300    0.0005818600    0.0000304900
    8    4.0186375850    6.7334951010    1.6687772560    0.0001353700    0.0002288200    0.0007084500
    8   -0.5323313410    6.7334951010    8.3775568090   -0.0001353700    0.0002288200   -0.0007084500
    8    2.3367891680    4.6720452140    1.6333136280   -0.0005886500    0.0003500800   -0.0000949000
    8    1.1495168890    4.6720452140    8.4130205870    0.0005886500    0.0003500800    0.0000949000
    8   -0.7617158330    2.5426967610    8.4559651360   -0.0004456700    0.0001930600   -0.0004454400
    8    4.2480221560    2.5426967610    1.5903689280    0.0004456700    0.0001930600    0.0004454400
    8   -0.0838341540    4.6316871870    3.9341970170    0.0002404700   -0.0000776200    0.0003379800
    8    3.5701404770    4.6316871870    6.1121370470   -0.0002404700   -0.0000776200   -0.0003379800
    8    2.6341055560    9.1880242780    3.9903436750   -0.0001112500   -0.0001746700    0.0001781700
    8    0.8522007420    9.1880242780    6.0559900880    0.0001112500   -0.0001746700   -0.0001781700
    1   -0.0021800310    4.5561906800    2.9742730760    0.0007227900   -0.0001109900    0.0004024100
    1    3.4884864330    4.5561906800    7.0720609890   -0.0007227900   -0.0001109900   -0.0004024100
    1    2.6092737090    0.1255083720    3.0339042610   -0.0000193900    0.0006028900    0.0000089600
    1    0.8770325350    0.1255083720    7.0124298040    0.0000193900    0.0006028900   -0.0000089600
   26    1.7431531220    4.5226385570    5.0231670320    0.0000000000    0.0007569200    0.0000000000
   19   -1.8126838200    4.5360355510   10.0463340640    0.0000000000    0.0003679600    0.0000000000
   19    0.8368112110    0.0429418270   10.0463340640    0.0000000000   -0.0006582800    0.0000000000
   19    5.2989900630    4.5360355510    0.0000000000    0.0000000000    0.0003679600    0.0000000000
   12    4.3926481530    0.0368048360    5.0231670320    0.0000000000   -0.0004179900    0.0000000000
   12    4.3926481530    3.0578638080    5.0231670320    0.0000000000    0.0004708800    0.0000000000
   12    4.3926481530    6.1232059290    5.0231670320    0.0000000000   -0.0008674300    0.0000000000
   19    3.4863062430    4.5360355510   10.0463340640    0.0000000000    0.0003679600    0.0000000000
 FRAMES
1      0.0000000000    0.0000000000    0.0000000000      5.2989900630    0.0000000000    0.0000000000
1      0.0000000000    0.0000000000    0.0000000000      0.0000000000    9.1953692500    0.0000000000
1      0.0000000000    0.0000000000    0.0000000000     -1.8126838200    0.0000000000   10.0463340640
1     -1.8126838200    0.0000000000   10.0463340640      3.4863062430    0.0000000000   10.0463340640
1     -1.8126838200    0.0000000000   10.0463340640     -1.8126838200    9.1953692500   10.0463340640
1      0.0000000000    9.1953692500    0.0000000000      5.2989900630    9.1953692500    0.0000000000
1      0.0000000000    9.1953692500    0.0000000000     -1.8126838200    9.1953692500   10.0463340640
1     -1.8126838200    9.1953692500   10.0463340640      3.4863062430    9.1953692500   10.0463340640
1      5.2989900630    0.0000000000    0.0000000000      5.2989900630    9.1953692500    0.0000000000
1      5.2989900630    0.0000000000    0.0000000000      3.4863062430    0.0000000000   10.0463340640
1      3.4863062430    0.0000000000   10.0463340640      3.4863062430    9.1953692500   10.0463340640
1      5.2989900630    9.1953692500    0.0000000000      3.4863062430    9.1953692500   10.0463340640
