 INFO
nunit      1    1    1
unit   cell
celltype   primcell
shape   parapipedal
 END_INFO
 DIM-GROUP
           3           1
 PRIMVEC
    5.2989900630    0.0000000000    0.0000000000
    0.0000000000    9.1953692500    0.0000000000
   -1.8126838200    0.0000000000   10.0463340640
 CONVVEC
    5.2989900630    0.0000000000    0.0000000000
    0.0000000000    9.1953692500    0.0000000000
   -1.8126838200    0.0000000000   10.0463340640
 PRIMCOORD
          44           1
 19      0.0000000000     4.5638543930     0.0000000000     0.0000000000     0.0006335600     0.0000000000
 19      2.6494950310     0.0163576170     0.0000000000     0.0000000000    -0.0005796800     0.0000000000
 12     -0.9063419100     0.0400744630     5.0231670320     0.0000000000    -0.0006849800     0.0000000000
 12     -0.9063419100     3.0655422940     5.0231670320     0.0000000000    -0.0000109500     0.0000000000
 12     -0.9063419100     6.1140710300     5.0231670320     0.0000000000     0.0001840600     0.0000000000
 12      1.7431531220     4.5348979190     5.0231670320     0.0000000000     0.0004459800     0.0000000000
 12      1.7431531220     7.6768489830     5.0231670320     0.0000000000     0.0005934200     0.0000000000
 12      1.7431531220     1.5832740710     5.0231670320     0.0000000000    -0.0007336500     0.0000000000
 14      0.0368169080     1.5163790800     2.2389537440     0.0003897400     0.0000954200    -0.0004191000
 14      3.4494892070     1.5163790800     7.8073806210    -0.0003897400     0.0000954200     0.0004191000
 14      3.5527385630     7.6715596650     7.7464231800     0.0000836800    -0.0001276100     0.0000382000
 14     -0.0664323190     7.6715596650     2.2999108840    -0.0000836800    -0.0001276100    -0.0000382000
 14      2.5796657530     6.1289696300     2.2798247550    -0.0001707100     0.0000487000     0.0001531800
 14      0.9066405180     6.1289696300     7.7665091590     0.0001707100     0.0000487000    -0.0001531800
 13      0.7951145980     3.0430022680     7.7924591560    -0.0000942100     0.0000756500    -0.0008501800
 13      2.6911916450     3.0430022680     2.2538749080     0.0000942100     0.0000756500     0.0008501800
  8     -0.0238261020     1.5030595710     3.8697197680    -0.0000782000     0.0003005100    -0.0003669800
  8      3.5101321340     1.5030595710     6.1766145880     0.0000782000     0.0003005100     0.0003669800
  8      3.5281352140     7.6602493450     6.1290594210    -0.0000273400     0.0000857000     0.0001643500
  8     -0.0418289710     7.6602493450     3.9172746440     0.0000273400     0.0000857000    -0.0001643500
  8      2.6094295520     6.1534875750     3.9041596910     0.0002945700    -0.0001383500    -0.0001485500
  8      0.8768766910     6.1534875750     6.1421743730    -0.0002945700    -0.0001383500     0.0001485500
  8      0.8193060010     3.0623812470     6.0649104870    -0.0001625400    -0.0001393200    -0.0008177500
  8      2.6670002430     3.0623812470     3.9814235780     0.0001625400    -0.0001393200     0.0008177500
  8      1.5223449450     1.8530534400     1.6679212230     0.0004697600    -0.0001744800    -0.0003767000
  8      1.9639613530     1.8530534400     8.3784125400    -0.0004697600    -0.0001744800     0.0003767000
  8      4.9593153550     9.1690845870     1.6847903740     0.0002409300    -0.0001097000     0.0005788400
  8     -1.4730090850     9.1690845870     8.3615435400    -0.0002409300    -0.0001097000    -0.0005788400
  8      2.1046486310     7.1397687790     8.3478559500     0.0000661600    -0.0000931200    -0.0000563200
  8      1.3816576130     7.1397687790     1.6984781150    -0.0000661600    -0.0000931200     0.0000563200
  8      4.0275038610     6.7160782710     1.6874494510    -0.0004299100     0.0003052900     0.0002465900
  8     -0.5411976180     6.7160782710     8.3588846130     0.0004299100     0.0003052900    -0.0002465900
  8      2.3256020250     4.6692319870     1.6318395450     0.0001862800    -0.0001266000    -0.0004646900
  8      1.1607040320     4.6692319870     8.4144946700    -0.0001862800    -0.0001266000     0.0004646900
  8     -0.7715528200     2.5527809280     8.4447525510     0.0000849600    -0.0000478800    -0.0001421800
  8      4.2578591420     2.5527809280     1.6015815130    -0.0000849600    -0.0000478800     0.0001421800
  8     -0.0231336950     4.6366895640     3.9516993480     0.0000083200    -0.0001520200     0.0008839900
  8      3.5094400180     4.6366895640     6.0946347170    -0.0000083200    -0.0001520200    -0.0008839900
  8      2.6317285220     9.1882561530     3.9872328610    -0.0000774300     0.0002844400     0.0003932400
  8      0.8545777760     9.1882561530     6.0591009020     0.0000774300     0.0002844400    -0.0003932400
  1     -0.0168755500     4.5407686350     2.9918816150    -0.0000175600    -0.0004172600     0.0001693700
  1      3.5031819520     4.5407686350     7.0544524500     0.0000175600    -0.0004172600    -0.0001693700
  1      2.6065032900     0.1467779000     3.0340997300    -0.0002215600     0.0004067400     0.0001969600
  1      0.8798029530     0.1467779000     7.0122343340     0.0002215600     0.0004067400    -0.0001969600
 CONVCOORD
          44           1
 19      0.0000000000     4.5638543930     0.0000000000
 19      2.6494950310     0.0163576170     0.0000000000
 12     -0.9063419100     0.0400744630     5.0231670320
 12     -0.9063419100     3.0655422940     5.0231670320
 12     -0.9063419100     6.1140710300     5.0231670320
 12      1.7431531220     4.5348979190     5.0231670320
 12      1.7431531220     7.6768489830     5.0231670320
 12      1.7431531220     1.5832740710     5.0231670320
 14      0.0368169080     1.5163790800     2.2389537440
 14      3.4494892070     1.5163790800     7.8073806210
 14      3.5527385630     7.6715596650     7.7464231800
 14     -0.0664323190     7.6715596650     2.2999108840
 14      2.5796657530     6.1289696300     2.2798247550
 14      0.9066405180     6.1289696300     7.7665091590
 13      0.7951145980     3.0430022680     7.7924591560
 13      2.6911916450     3.0430022680     2.2538749080
  8     -0.0238261020     1.5030595710     3.8697197680
  8      3.5101321340     1.5030595710     6.1766145880
  8      3.5281352140     7.6602493450     6.1290594210
  8     -0.0418289710     7.6602493450     3.9172746440
  8      2.6094295520     6.1534875750     3.9041596910
  8      0.8768766910     6.1534875750     6.1421743730
  8      0.8193060010     3.0623812470     6.0649104870
  8      2.6670002430     3.0623812470     3.9814235780
  8      1.5223449450     1.8530534400     1.6679212230
  8      1.9639613530     1.8530534400     8.3784125400
  8      4.9593153550     9.1690845870     1.6847903740
  8     -1.4730090850     9.1690845870     8.3615435400
  8      2.1046486310     7.1397687790     8.3478559500
  8      1.3816576130     7.1397687790     1.6984781150
  8      4.0275038610     6.7160782710     1.6874494510
  8     -0.5411976180     6.7160782710     8.3588846130
  8      2.3256020250     4.6692319870     1.6318395450
  8      1.1607040320     4.6692319870     8.4144946700
  8     -0.7715528200     2.5527809280     8.4447525510
  8      4.2578591420     2.5527809280     1.6015815130
  8     -0.0231336950     4.6366895640     3.9516993480
  8      3.5094400180     4.6366895640     6.0946347170
  8      2.6317285220     9.1882561530     3.9872328610
  8      0.8545777760     9.1882561530     6.0591009020
  1     -0.0168755500     4.5407686350     2.9918816150
  1      3.5031819520     4.5407686350     7.0544524500
  1      2.6065032900     0.1467779000     3.0340997300
  1      0.8798029530     0.1467779000     7.0122343340
 RECIP-PRIMVEC
    0.1887152057   -0.0000000000    0.0340503310

    0.0000000000    0.1087503909   -0.0000000000

    0.0000000000    0.0000000000    0.0995387963

 RECIP-CONVVEC
    0.1887152057   -0.0000000000    0.0340503310

    0.0000000000    0.1087503909   -0.0000000000

    0.0000000000    0.0000000000    0.0995387963

 WIGNER-SEITZ-PRIMCELL
           4
 -0.2649495E+01  0.4597685E+01 -0.4708646E+01  -0.3278435E+00 -0.1009766E-15 -0.9447320E+00
 -0.8368112E+00  0.4597685E+01 -0.5337688E+01  -0.3278435E+00 -0.1009766E-15 -0.9447320E+00
 -0.8368112E+00 -0.4597685E+01 -0.5337688E+01  -0.3278435E+00 -0.1009766E-15 -0.9447320E+00
 -0.2649495E+01 -0.4597685E+01 -0.4708646E+01  -0.3278435E+00 -0.1009766E-15 -0.9447320E+00
           4
 -0.2649495E+01  0.4597685E+01 -0.4708646E+01  -0.1000000E+01  0.4829488E-16  0.4554862E-32
 -0.2649495E+01 -0.4597685E+01 -0.4708646E+01  -0.1000000E+01  0.4829488E-16  0.4554862E-32
 -0.2649495E+01 -0.4597685E+01  0.4708646E+01  -0.1000000E+01  0.4829488E-16  0.4554862E-32
 -0.2649495E+01  0.4597685E+01  0.4708646E+01  -0.1000000E+01  0.4829488E-16  0.4554862E-32
           6
  0.2649495E+01 -0.4597685E+01  0.4708646E+01  -0.0000000E+00 -0.1000000E+01  0.1065828E-14
  0.8368112E+00 -0.4597685E+01  0.5337688E+01  -0.0000000E+00 -0.1000000E+01  0.1065828E-14
 -0.2649495E+01 -0.4597685E+01  0.4708646E+01  -0.0000000E+00 -0.1000000E+01  0.1065828E-14
 -0.2649495E+01 -0.4597685E+01 -0.4708646E+01  -0.0000000E+00 -0.1000000E+01  0.1065828E-14
 -0.8368112E+00 -0.4597685E+01 -0.5337688E+01  -0.0000000E+00 -0.1000000E+01  0.1065828E-14
  0.2649495E+01 -0.4597685E+01 -0.4708646E+01  -0.0000000E+00 -0.1000000E+01  0.1065828E-14
           4
  0.2649495E+01 -0.4597685E+01 -0.4708646E+01   0.1775651E+00 -0.2181216E-15 -0.9841091E+00
 -0.8368112E+00 -0.4597685E+01 -0.5337688E+01   0.1775651E+00 -0.2181216E-15 -0.9841091E+00
 -0.8368112E+00  0.4597685E+01 -0.5337688E+01   0.1775651E+00 -0.2181216E-15 -0.9841091E+00
  0.2649495E+01  0.4597685E+01 -0.4708646E+01   0.1775651E+00 -0.2181216E-15 -0.9841091E+00
           4
 -0.2649495E+01  0.4597685E+01  0.4708646E+01  -0.1775651E+00 -0.0000000E+00  0.9841091E+00
 -0.2649495E+01 -0.4597685E+01  0.4708646E+01  -0.1775651E+00 -0.0000000E+00  0.9841091E+00
  0.8368112E+00 -0.4597685E+01  0.5337688E+01  -0.1775651E+00 -0.0000000E+00  0.9841091E+00
  0.8368112E+00  0.4597685E+01  0.5337688E+01  -0.1775651E+00 -0.0000000E+00  0.9841091E+00
           6
  0.2649495E+01  0.4597685E+01 -0.4708646E+01   0.0000000E+00  0.1000000E+01  0.1065828E-14
 -0.8368112E+00  0.4597685E+01 -0.5337688E+01   0.0000000E+00  0.1000000E+01  0.1065828E-14
 -0.2649495E+01  0.4597685E+01 -0.4708646E+01   0.0000000E+00  0.1000000E+01  0.1065828E-14
 -0.2649495E+01  0.4597685E+01  0.4708646E+01   0.0000000E+00  0.1000000E+01  0.1065828E-14
  0.8368112E+00  0.4597685E+01  0.5337688E+01   0.0000000E+00  0.1000000E+01  0.1065828E-14
  0.2649495E+01  0.4597685E+01  0.4708646E+01   0.0000000E+00  0.1000000E+01  0.1065828E-14
           4
  0.2649495E+01  0.4597685E+01  0.4708646E+01   0.1000000E+01 -0.4829488E-16  0.0000000E+00
  0.2649495E+01 -0.4597685E+01  0.4708646E+01   0.1000000E+01 -0.4829488E-16  0.0000000E+00
  0.2649495E+01 -0.4597685E+01 -0.4708646E+01   0.1000000E+01 -0.4829488E-16  0.0000000E+00
  0.2649495E+01  0.4597685E+01 -0.4708646E+01   0.1000000E+01 -0.4829488E-16  0.0000000E+00
           4
  0.8368112E+00 -0.4597685E+01  0.5337688E+01   0.3278435E+00  0.3334111E-16  0.9447320E+00
  0.2649495E+01 -0.4597685E+01  0.4708646E+01   0.3278435E+00  0.3334111E-16  0.9447320E+00
  0.2649495E+01  0.4597685E+01  0.4708646E+01   0.3278435E+00  0.3334111E-16  0.9447320E+00
  0.8368112E+00  0.4597685E+01  0.5337688E+01   0.3278435E+00  0.3334111E-16  0.9447320E+00
 WIGNER-SEITZ-PRIMCELL_END
 WIGNER-SEITZ-CONVCELL
           4
 -0.2649495E+01  0.4597685E+01 -0.4708646E+01  -0.3278435E+00 -0.1009766E-15 -0.9447320E+00
 -0.8368112E+00  0.4597685E+01 -0.5337688E+01  -0.3278435E+00 -0.1009766E-15 -0.9447320E+00
 -0.8368112E+00 -0.4597685E+01 -0.5337688E+01  -0.3278435E+00 -0.1009766E-15 -0.9447320E+00
 -0.2649495E+01 -0.4597685E+01 -0.4708646E+01  -0.3278435E+00 -0.1009766E-15 -0.9447320E+00
           4
 -0.2649495E+01  0.4597685E+01 -0.4708646E+01  -0.1000000E+01  0.4829488E-16  0.4554862E-32
 -0.2649495E+01 -0.4597685E+01 -0.4708646E+01  -0.1000000E+01  0.4829488E-16  0.4554862E-32
 -0.2649495E+01 -0.4597685E+01  0.4708646E+01  -0.1000000E+01  0.4829488E-16  0.4554862E-32
 -0.2649495E+01  0.4597685E+01  0.4708646E+01  -0.1000000E+01  0.4829488E-16  0.4554862E-32
           6
  0.2649495E+01 -0.4597685E+01  0.4708646E+01  -0.0000000E+00 -0.1000000E+01  0.1065828E-14
  0.8368112E+00 -0.4597685E+01  0.5337688E+01  -0.0000000E+00 -0.1000000E+01  0.1065828E-14
 -0.2649495E+01 -0.4597685E+01  0.4708646E+01  -0.0000000E+00 -0.1000000E+01  0.1065828E-14
 -0.2649495E+01 -0.4597685E+01 -0.4708646E+01  -0.0000000E+00 -0.1000000E+01  0.1065828E-14
 -0.8368112E+00 -0.4597685E+01 -0.5337688E+01  -0.0000000E+00 -0.1000000E+01  0.1065828E-14
  0.2649495E+01 -0.4597685E+01 -0.4708646E+01  -0.0000000E+00 -0.1000000E+01  0.1065828E-14
           4
  0.2649495E+01 -0.4597685E+01 -0.4708646E+01   0.1775651E+00 -0.2181216E-15 -0.9841091E+00
 -0.8368112E+00 -0.4597685E+01 -0.5337688E+01   0.1775651E+00 -0.2181216E-15 -0.9841091E+00
 -0.8368112E+00  0.4597685E+01 -0.5337688E+01   0.1775651E+00 -0.2181216E-15 -0.9841091E+00
  0.2649495E+01  0.4597685E+01 -0.4708646E+01   0.1775651E+00 -0.2181216E-15 -0.9841091E+00
           4
 -0.2649495E+01  0.4597685E+01  0.4708646E+01  -0.1775651E+00 -0.0000000E+00  0.9841091E+00
 -0.2649495E+01 -0.4597685E+01  0.4708646E+01  -0.1775651E+00 -0.0000000E+00  0.9841091E+00
  0.8368112E+00 -0.4597685E+01  0.5337688E+01  -0.1775651E+00 -0.0000000E+00  0.9841091E+00
  0.8368112E+00  0.4597685E+01  0.5337688E+01  -0.1775651E+00 -0.0000000E+00  0.9841091E+00
           6
  0.2649495E+01  0.4597685E+01 -0.4708646E+01   0.0000000E+00  0.1000000E+01  0.1065828E-14
 -0.8368112E+00  0.4597685E+01 -0.5337688E+01   0.0000000E+00  0.1000000E+01  0.1065828E-14
 -0.2649495E+01  0.4597685E+01 -0.4708646E+01   0.0000000E+00  0.1000000E+01  0.1065828E-14
 -0.2649495E+01  0.4597685E+01  0.4708646E+01   0.0000000E+00  0.1000000E+01  0.1065828E-14
  0.8368112E+00  0.4597685E+01  0.5337688E+01   0.0000000E+00  0.1000000E+01  0.1065828E-14
  0.2649495E+01  0.4597685E+01  0.4708646E+01   0.0000000E+00  0.1000000E+01  0.1065828E-14
           4
  0.2649495E+01  0.4597685E+01  0.4708646E+01   0.1000000E+01 -0.4829488E-16  0.0000000E+00
  0.2649495E+01 -0.4597685E+01  0.4708646E+01   0.1000000E+01 -0.4829488E-16  0.0000000E+00
  0.2649495E+01 -0.4597685E+01 -0.4708646E+01   0.1000000E+01 -0.4829488E-16  0.0000000E+00
  0.2649495E+01  0.4597685E+01 -0.4708646E+01   0.1000000E+01 -0.4829488E-16  0.0000000E+00
           4
  0.8368112E+00 -0.4597685E+01  0.5337688E+01   0.3278435E+00  0.3334111E-16  0.9447320E+00
  0.2649495E+01 -0.4597685E+01  0.4708646E+01   0.3278435E+00  0.3334111E-16  0.9447320E+00
  0.2649495E+01  0.4597685E+01  0.4708646E+01   0.3278435E+00  0.3334111E-16  0.9447320E+00
  0.8368112E+00  0.4597685E+01  0.5337688E+01   0.3278435E+00  0.3334111E-16  0.9447320E+00
 WIGNER-SEITZ-CONVCELL_END
 BRILLOUIN-ZONE-PRIMCELL
           4
  0.1002657E+00  0.5437520E-01 -0.1571907E-01   0.9447320E+00  0.5532186E-16 -0.3278435E+00
  0.1002657E+00 -0.5437520E-01 -0.1571907E-01   0.9447320E+00  0.5532186E-16 -0.3278435E+00
  0.8844948E-01 -0.5437520E-01 -0.4976940E-01   0.9447320E+00  0.5532186E-16 -0.3278435E+00
  0.8844948E-01  0.5437520E-01 -0.4976940E-01   0.9447320E+00  0.5532186E-16 -0.3278435E+00
           4
 -0.8844948E-01  0.5437520E-01 -0.4976940E-01   0.0000000E+00 -0.5426985E-16 -0.1000000E+01
  0.8844948E-01  0.5437520E-01 -0.4976940E-01   0.0000000E+00 -0.5426985E-16 -0.1000000E+01
  0.8844948E-01 -0.5437520E-01 -0.4976940E-01   0.0000000E+00 -0.5426985E-16 -0.1000000E+01
 -0.8844948E-01 -0.5437520E-01 -0.4976940E-01   0.0000000E+00 -0.5426985E-16 -0.1000000E+01
           6
  0.8844948E-01 -0.5437520E-01  0.4976940E-01   0.0000000E+00 -0.1000000E+01  0.2879941E-15
 -0.8844948E-01 -0.5437520E-01  0.4976940E-01   0.0000000E+00 -0.1000000E+01  0.2879941E-15
 -0.1002657E+00 -0.5437520E-01  0.1571907E-01   0.0000000E+00 -0.1000000E+01  0.2879941E-15
 -0.8844948E-01 -0.5437520E-01 -0.4976940E-01   0.0000000E+00 -0.1000000E+01  0.2879941E-15
  0.8844948E-01 -0.5437520E-01 -0.4976940E-01   0.0000000E+00 -0.1000000E+01  0.2879941E-15
  0.1002657E+00 -0.5437520E-01 -0.1571907E-01   0.0000000E+00 -0.1000000E+01  0.2879941E-15
           4
  0.8844948E-01  0.5437520E-01  0.4976940E-01   0.9841091E+00 -0.3370857E-15  0.1775651E+00
  0.8844948E-01 -0.5437520E-01  0.4976940E-01   0.9841091E+00 -0.3370857E-15  0.1775651E+00
  0.1002657E+00 -0.5437520E-01 -0.1571907E-01   0.9841091E+00 -0.3370857E-15  0.1775651E+00
  0.1002657E+00  0.5437520E-01 -0.1571907E-01   0.9841091E+00 -0.3370857E-15  0.1775651E+00
           4
 -0.8844948E-01  0.5437520E-01 -0.4976940E-01  -0.9841091E+00 -0.1498159E-15 -0.1775651E+00
 -0.8844948E-01 -0.5437520E-01 -0.4976940E-01  -0.9841091E+00 -0.1498159E-15 -0.1775651E+00
 -0.1002657E+00 -0.5437520E-01  0.1571907E-01  -0.9841091E+00 -0.1498159E-15 -0.1775651E+00
 -0.1002657E+00  0.5437520E-01  0.1571907E-01  -0.9841091E+00 -0.1498159E-15 -0.1775651E+00
           6
  0.1002657E+00  0.5437520E-01 -0.1571907E-01  -0.0000000E+00  0.1000000E+01  0.2879941E-15
  0.8844948E-01  0.5437520E-01 -0.4976940E-01  -0.0000000E+00  0.1000000E+01  0.2879941E-15
 -0.8844948E-01  0.5437520E-01 -0.4976940E-01  -0.0000000E+00  0.1000000E+01  0.2879941E-15
 -0.1002657E+00  0.5437520E-01  0.1571907E-01  -0.0000000E+00  0.1000000E+01  0.2879941E-15
 -0.8844948E-01  0.5437520E-01  0.4976940E-01  -0.0000000E+00  0.1000000E+01  0.2879941E-15
  0.8844948E-01  0.5437520E-01  0.4976940E-01  -0.0000000E+00  0.1000000E+01  0.2879941E-15
           4
  0.8844948E-01 -0.5437520E-01  0.4976940E-01  -0.0000000E+00 -0.0000000E+00  0.1000000E+01
  0.8844948E-01  0.5437520E-01  0.4976940E-01  -0.0000000E+00 -0.0000000E+00  0.1000000E+01
 -0.8844948E-01  0.5437520E-01  0.4976940E-01  -0.0000000E+00 -0.0000000E+00  0.1000000E+01
 -0.8844948E-01 -0.5437520E-01  0.4976940E-01  -0.0000000E+00 -0.0000000E+00  0.1000000E+01
           4
 -0.1002657E+00  0.5437520E-01  0.1571907E-01  -0.9447320E+00 -0.1383046E-15  0.3278435E+00
 -0.1002657E+00 -0.5437520E-01  0.1571907E-01  -0.9447320E+00 -0.1383046E-15  0.3278435E+00
 -0.8844948E-01 -0.5437520E-01  0.4976940E-01  -0.9447320E+00 -0.1383046E-15  0.3278435E+00
 -0.8844948E-01  0.5437520E-01  0.4976940E-01  -0.9447320E+00 -0.1383046E-15  0.3278435E+00
 BRILLOUIN-ZONE-PRIMCELL_END
 BRILLOUIN-ZONE-CONVCELL
           4
  0.1002657E+00  0.5437520E-01 -0.1571907E-01   0.9447320E+00  0.5532186E-16 -0.3278435E+00
  0.1002657E+00 -0.5437520E-01 -0.1571907E-01   0.9447320E+00  0.5532186E-16 -0.3278435E+00
  0.8844948E-01 -0.5437520E-01 -0.4976940E-01   0.9447320E+00  0.5532186E-16 -0.3278435E+00
  0.8844948E-01  0.5437520E-01 -0.4976940E-01   0.9447320E+00  0.5532186E-16 -0.3278435E+00
           4
 -0.8844948E-01  0.5437520E-01 -0.4976940E-01   0.0000000E+00 -0.5426985E-16 -0.1000000E+01
  0.8844948E-01  0.5437520E-01 -0.4976940E-01   0.0000000E+00 -0.5426985E-16 -0.1000000E+01
  0.8844948E-01 -0.5437520E-01 -0.4976940E-01   0.0000000E+00 -0.5426985E-16 -0.1000000E+01
 -0.8844948E-01 -0.5437520E-01 -0.4976940E-01   0.0000000E+00 -0.5426985E-16 -0.1000000E+01
           6
  0.8844948E-01 -0.5437520E-01  0.4976940E-01   0.0000000E+00 -0.1000000E+01  0.2879941E-15
 -0.8844948E-01 -0.5437520E-01  0.4976940E-01   0.0000000E+00 -0.1000000E+01  0.2879941E-15
 -0.1002657E+00 -0.5437520E-01  0.1571907E-01   0.0000000E+00 -0.1000000E+01  0.2879941E-15
 -0.8844948E-01 -0.5437520E-01 -0.4976940E-01   0.0000000E+00 -0.1000000E+01  0.2879941E-15
  0.8844948E-01 -0.5437520E-01 -0.4976940E-01   0.0000000E+00 -0.1000000E+01  0.2879941E-15
  0.1002657E+00 -0.5437520E-01 -0.1571907E-01   0.0000000E+00 -0.1000000E+01  0.2879941E-15
           4
  0.8844948E-01  0.5437520E-01  0.4976940E-01   0.9841091E+00 -0.3370857E-15  0.1775651E+00
  0.8844948E-01 -0.5437520E-01  0.4976940E-01   0.9841091E+00 -0.3370857E-15  0.1775651E+00
  0.1002657E+00 -0.5437520E-01 -0.1571907E-01   0.9841091E+00 -0.3370857E-15  0.1775651E+00
  0.1002657E+00  0.5437520E-01 -0.1571907E-01   0.9841091E+00 -0.3370857E-15  0.1775651E+00
           4
 -0.8844948E-01  0.5437520E-01 -0.4976940E-01  -0.9841091E+00 -0.1498159E-15 -0.1775651E+00
 -0.8844948E-01 -0.5437520E-01 -0.4976940E-01  -0.9841091E+00 -0.1498159E-15 -0.1775651E+00
 -0.1002657E+00 -0.5437520E-01  0.1571907E-01  -0.9841091E+00 -0.1498159E-15 -0.1775651E+00
 -0.1002657E+00  0.5437520E-01  0.1571907E-01  -0.9841091E+00 -0.1498159E-15 -0.1775651E+00
           6
  0.1002657E+00  0.5437520E-01 -0.1571907E-01  -0.0000000E+00  0.1000000E+01  0.2879941E-15
  0.8844948E-01  0.5437520E-01 -0.4976940E-01  -0.0000000E+00  0.1000000E+01  0.2879941E-15
 -0.8844948E-01  0.5437520E-01 -0.4976940E-01  -0.0000000E+00  0.1000000E+01  0.2879941E-15
 -0.1002657E+00  0.5437520E-01  0.1571907E-01  -0.0000000E+00  0.1000000E+01  0.2879941E-15
 -0.8844948E-01  0.5437520E-01  0.4976940E-01  -0.0000000E+00  0.1000000E+01  0.2879941E-15
  0.8844948E-01  0.5437520E-01  0.4976940E-01  -0.0000000E+00  0.1000000E+01  0.2879941E-15
           4
  0.8844948E-01 -0.5437520E-01  0.4976940E-01  -0.0000000E+00 -0.0000000E+00  0.1000000E+01
  0.8844948E-01  0.5437520E-01  0.4976940E-01  -0.0000000E+00 -0.0000000E+00  0.1000000E+01
 -0.8844948E-01  0.5437520E-01  0.4976940E-01  -0.0000000E+00 -0.0000000E+00  0.1000000E+01
 -0.8844948E-01 -0.5437520E-01  0.4976940E-01  -0.0000000E+00 -0.0000000E+00  0.1000000E+01
           4
 -0.1002657E+00  0.5437520E-01  0.1571907E-01  -0.9447320E+00 -0.1383046E-15  0.3278435E+00
 -0.1002657E+00 -0.5437520E-01  0.1571907E-01  -0.9447320E+00 -0.1383046E-15  0.3278435E+00
 -0.8844948E-01 -0.5437520E-01  0.4976940E-01  -0.9447320E+00 -0.1383046E-15  0.3278435E+00
 -0.8844948E-01  0.5437520E-01  0.4976940E-01  -0.9447320E+00 -0.1383046E-15  0.3278435E+00
 BRILLOUIN-ZONE-CONVCELL_END
 ATOMS
   19    0.0000000000    4.5638543930    0.0000000000    0.0000000000    0.0006335600    0.0000000000
   19    2.6494950310    0.0163576170    0.0000000000    0.0000000000   -0.0005796800    0.0000000000
   12   -0.9063419100    0.0400744630    5.0231670320    0.0000000000   -0.0006849800    0.0000000000
   12   -0.9063419100    3.0655422940    5.0231670320    0.0000000000   -0.0000109500    0.0000000000
   12   -0.9063419100    6.1140710300    5.0231670320    0.0000000000    0.0001840600    0.0000000000
   12    1.7431531220    4.5348979190    5.0231670320    0.0000000000    0.0004459800    0.0000000000
   12    1.7431531220    7.6768489830    5.0231670320    0.0000000000    0.0005934200    0.0000000000
   12    1.7431531220    1.5832740710    5.0231670320    0.0000000000   -0.0007336500    0.0000000000
   14    0.0368169080    1.5163790800    2.2389537440    0.0003897400    0.0000954200   -0.0004191000
   14    3.4494892070    1.5163790800    7.8073806210   -0.0003897400    0.0000954200    0.0004191000
   14    3.5527385630    7.6715596650    7.7464231800    0.0000836800   -0.0001276100    0.0000382000
   14   -0.0664323190    7.6715596650    2.2999108840   -0.0000836800   -0.0001276100   -0.0000382000
   14    2.5796657530    6.1289696300    2.2798247550   -0.0001707100    0.0000487000    0.0001531800
   14    0.9066405180    6.1289696300    7.7665091590    0.0001707100    0.0000487000   -0.0001531800
   13    0.7951145980    3.0430022680    7.7924591560   -0.0000942100    0.0000756500   -0.0008501800
   13    2.6911916450    3.0430022680    2.2538749080    0.0000942100    0.0000756500    0.0008501800
    8   -0.0238261020    1.5030595710    3.8697197680   -0.0000782000    0.0003005100   -0.0003669800
    8    3.5101321340    1.5030595710    6.1766145880    0.0000782000    0.0003005100    0.0003669800
    8    3.5281352140    7.6602493450    6.1290594210   -0.0000273400    0.0000857000    0.0001643500
    8   -0.0418289710    7.6602493450    3.9172746440    0.0000273400    0.0000857000   -0.0001643500
    8    2.6094295520    6.1534875750    3.9041596910    0.0002945700   -0.0001383500   -0.0001485500
    8    0.8768766910    6.1534875750    6.1421743730   -0.0002945700   -0.0001383500    0.0001485500
    8    0.8193060010    3.0623812470    6.0649104870   -0.0001625400   -0.0001393200   -0.0008177500
    8    2.6670002430    3.0623812470    3.9814235780    0.0001625400   -0.0001393200    0.0008177500
    8    1.5223449450    1.8530534400    1.6679212230    0.0004697600   -0.0001744800   -0.0003767000
    8    1.9639613530    1.8530534400    8.3784125400   -0.0004697600   -0.0001744800    0.0003767000
    8    4.9593153550    9.1690845870    1.6847903740    0.0002409300   -0.0001097000    0.0005788400
    8   -1.4730090850    9.1690845870    8.3615435400   -0.0002409300   -0.0001097000   -0.0005788400
    8    2.1046486310    7.1397687790    8.3478559500    0.0000661600   -0.0000931200   -0.0000563200
    8    1.3816576130    7.1397687790    1.6984781150   -0.0000661600   -0.0000931200    0.0000563200
    8    4.0275038610    6.7160782710    1.6874494510   -0.0004299100    0.0003052900    0.0002465900
    8   -0.5411976180    6.7160782710    8.3588846130    0.0004299100    0.0003052900   -0.0002465900
    8    2.3256020250    4.6692319870    1.6318395450    0.0001862800   -0.0001266000   -0.0004646900
    8    1.1607040320    4.6692319870    8.4144946700   -0.0001862800   -0.0001266000    0.0004646900
    8   -0.7715528200    2.5527809280    8.4447525510    0.0000849600   -0.0000478800   -0.0001421800
    8    4.2578591420    2.5527809280    1.6015815130   -0.0000849600   -0.0000478800    0.0001421800
    8   -0.0231336950    4.6366895640    3.9516993480    0.0000083200   -0.0001520200    0.0008839900
    8    3.5094400180    4.6366895640    6.0946347170   -0.0000083200   -0.0001520200   -0.0008839900
    8    2.6317285220    9.1882561530    3.9872328610   -0.0000774300    0.0002844400    0.0003932400
    8    0.8545777760    9.1882561530    6.0591009020    0.0000774300    0.0002844400   -0.0003932400
    1   -0.0168755500    4.5407686350    2.9918816150   -0.0000175600   -0.0004172600    0.0001693700
    1    3.5031819520    4.5407686350    7.0544524500    0.0000175600   -0.0004172600   -0.0001693700
    1    2.6065032900    0.1467779000    3.0340997300   -0.0002215600    0.0004067400    0.0001969600
    1    0.8798029530    0.1467779000    7.0122343340    0.0002215600    0.0004067400   -0.0001969600
   19   -1.8126838200    4.5638543930   10.0463340640    0.0000000000    0.0006335600    0.0000000000
   19    0.8368112110    0.0163576170   10.0463340640    0.0000000000   -0.0005796800    0.0000000000
   19    5.2989900630    4.5638543930    0.0000000000    0.0000000000    0.0006335600    0.0000000000
   12    4.3926481530    0.0400744630    5.0231670320    0.0000000000   -0.0006849800    0.0000000000
   12    4.3926481530    3.0655422940    5.0231670320    0.0000000000   -0.0000109500    0.0000000000
   12    4.3926481530    6.1140710300    5.0231670320    0.0000000000    0.0001840600    0.0000000000
   19    3.4863062430    4.5638543930   10.0463340640    0.0000000000    0.0006335600    0.0000000000
 FRAMES
1      0.0000000000    0.0000000000    0.0000000000      5.2989900630    0.0000000000    0.0000000000
1      0.0000000000    0.0000000000    0.0000000000      0.0000000000    9.1953692500    0.0000000000
1      0.0000000000    0.0000000000    0.0000000000     -1.8126838200    0.0000000000   10.0463340640
1     -1.8126838200    0.0000000000   10.0463340640      3.4863062430    0.0000000000   10.0463340640
1     -1.8126838200    0.0000000000   10.0463340640     -1.8126838200    9.1953692500   10.0463340640
1      0.0000000000    9.1953692500    0.0000000000      5.2989900630    9.1953692500    0.0000000000
1      0.0000000000    9.1953692500    0.0000000000     -1.8126838200    9.1953692500   10.0463340640
1     -1.8126838200    9.1953692500   10.0463340640      3.4863062430    9.1953692500   10.0463340640
1      5.2989900630    0.0000000000    0.0000000000      5.2989900630    9.1953692500    0.0000000000
1      5.2989900630    0.0000000000    0.0000000000      3.4863062430    0.0000000000   10.0463340640
1      3.4863062430    0.0000000000   10.0463340640      3.4863062430    9.1953692500   10.0463340640
1      5.2989900630    9.1953692500    0.0000000000      3.4863062430    9.1953692500   10.0463340640
