 INFO
nunit      1    1    1
unit   cell
celltype   primcell
shape   parapipedal
 END_INFO
 DIM-GROUP
           3           1
 PRIMVEC
    5.2855997630    0.0000000000    0.0000000000
    0.0000000000    9.1787981240    0.0000000000
   -1.7735195730    0.0000000000   10.0361012630
 CONVVEC
    5.2855997630    0.0000000000    0.0000000000
    0.0000000000    9.1787981240    0.0000000000
   -1.7735195730    0.0000000000   10.0361012630
 PRIMCOORD
          44           1
 19      0.0000000000     4.5702951110     0.0000000000     0.0000000000     0.0002533500     0.0000000000
 19      2.6427998810     0.0082668980     0.0000000000     0.0000000000    -0.0003233200     0.0000000000
 12     -0.8867597870     0.0309827500     5.0180506310     0.0000000000     0.0004348400     0.0000000000
 12     -0.8867597870     3.0415126000     5.0180506310     0.0000000000     0.0004228200     0.0000000000
 12     -0.8867597870     6.1119808340     5.0180506310     0.0000000000    -0.0008763200     0.0000000000
 12      1.7560400950     7.6713907940     5.0180506310     0.0000000000     0.0001178700     0.0000000000
 12      1.7560400950     1.5438199250     5.0180506310     0.0000000000     0.0006905300     0.0000000000
 26      1.7560400950     4.5205241220     5.0180506310     0.0000000000     0.0006058000     0.0000000000
 14      0.0488268260     1.5140668840     2.2253159430     0.0003779300    -0.0001975600     0.0006145000
 14      3.4632532580     1.5140668840     7.8107854700    -0.0003779300    -0.0001975600    -0.0006145000
 14      3.5630723600     7.6598308060     7.7518901080     0.0000025700     0.0002289300     0.0000007200
 14     -0.0509921700     7.6598308060     2.2842111550    -0.0000025700     0.0002289300    -0.0000007200
 14      2.5910495380     6.1287580490     2.2673280550     0.0000623300     0.0000084300     0.0001197700
 14      0.9210305990     6.1287580490     7.7687735090    -0.0000623300     0.0000084300    -0.0001197700
 13      0.8157489530     3.0377415650     7.7909742720    -0.0004816700    -0.0003443300    -0.0000260000
 13      2.6963310790     3.0377415650     2.2451269900     0.0004816700    -0.0003443300     0.0000260000
  8     -0.0066565280     1.4897357680     3.8558917750    -0.0000095300     0.0006834100     0.0002172500
  8      3.5187366120     1.4897357680     6.1802091860     0.0000095300     0.0006834100    -0.0002172500
  8      3.5339299990     7.6490998770     6.1348032550     0.0002800500    -0.0003117300     0.0000395200
  8     -0.0218498100     7.6490998770     3.9012980080    -0.0002800500    -0.0003117300    -0.0000395200
  8      2.6361581190     6.1908669200     3.8895927870    -0.0001590800    -0.0001625600     0.0001997700
  8      0.8759221240     6.1908669200     6.1465081740     0.0001590800    -0.0001625600    -0.0001997700
  8      0.8285877330     3.0098724980     6.0580721900     0.0002897800    -0.0002935000    -0.0002168300
  8      2.6834924570     3.0098724980     3.9780290730    -0.0002897800    -0.0002935000     0.0002168300
  8      1.5341659330     1.8477116890     1.6541771730     0.0001834200     0.0000344600    -0.0001759100
  8      1.9779142840     1.8477116890     8.3819239390    -0.0001834200     0.0000344600     0.0001759100
  8      4.9537816780     9.1542776210     1.6675524560    -0.0002912400     0.0002106200     0.0005219200
  8     -1.4417015140     9.1542776210     8.3685489570     0.0002912400     0.0002106200    -0.0005219200
  8      2.1146232970     7.1374878820     8.3568698410     0.0002160600    -0.0003839900     0.0001422200
  8      1.3974568930     7.1374878820     1.6792314220    -0.0002160600    -0.0003839900    -0.0001422200
  8      4.0383944520     6.6996290060     1.6629275780    -0.0001709600     0.0003746700     0.0002215600
  8     -0.5263143150     6.6996290060     8.3731739860     0.0001709600     0.0003746700    -0.0002215600
  8      2.3191170660     4.6636769210     1.6402539410     0.0004522800    -0.0001821500    -0.0004591000
  8      1.1929631240     4.6636769210     8.3958473210    -0.0004522800    -0.0001821500     0.0004591000
  8     -0.7492382660     2.5558369860     8.4452748690    -0.0003267500    -0.0002675200    -0.0001409000
  8      4.2613183760     2.5558369860     1.5908263930     0.0003267500    -0.0002675200     0.0001409000
  8     -0.0642424920     4.6204653800     3.9266633530    -0.0005239000     0.0002355600    -0.0001884600
  8      3.5763225770     4.6204653800     6.1094376080     0.0005239000     0.0002355600     0.0001884600
  8      2.6455803900     9.1696628190     3.9810622630     0.0002759500    -0.0001918500    -0.0005291400
  8      0.8664998000     9.1696628190     6.0550390000    -0.0002759500    -0.0001918500     0.0005291400
  1      0.0293734210     4.5398488600     2.9683192360    -0.0003311900    -0.0003309500     0.0001684000
  1      3.4827067270     4.5398488600     7.0677820260     0.0003311900    -0.0003309500    -0.0001684000
  1      2.6201861380     0.1492820400     3.0289151910    -0.0001389100     0.0002272700     0.0000692300
  1      0.8918941050     0.1492820400     7.0071857700     0.0001389100     0.0002272700    -0.0000692300
 CONVCOORD
          44           1
 19      0.0000000000     4.5702951110     0.0000000000
 19      2.6427998810     0.0082668980     0.0000000000
 12     -0.8867597870     0.0309827500     5.0180506310
 12     -0.8867597870     3.0415126000     5.0180506310
 12     -0.8867597870     6.1119808340     5.0180506310
 12      1.7560400950     7.6713907940     5.0180506310
 12      1.7560400950     1.5438199250     5.0180506310
 26      1.7560400950     4.5205241220     5.0180506310
 14      0.0488268260     1.5140668840     2.2253159430
 14      3.4632532580     1.5140668840     7.8107854700
 14      3.5630723600     7.6598308060     7.7518901080
 14     -0.0509921700     7.6598308060     2.2842111550
 14      2.5910495380     6.1287580490     2.2673280550
 14      0.9210305990     6.1287580490     7.7687735090
 13      0.8157489530     3.0377415650     7.7909742720
 13      2.6963310790     3.0377415650     2.2451269900
  8     -0.0066565280     1.4897357680     3.8558917750
  8      3.5187366120     1.4897357680     6.1802091860
  8      3.5339299990     7.6490998770     6.1348032550
  8     -0.0218498100     7.6490998770     3.9012980080
  8      2.6361581190     6.1908669200     3.8895927870
  8      0.8759221240     6.1908669200     6.1465081740
  8      0.8285877330     3.0098724980     6.0580721900
  8      2.6834924570     3.0098724980     3.9780290730
  8      1.5341659330     1.8477116890     1.6541771730
  8      1.9779142840     1.8477116890     8.3819239390
  8      4.9537816780     9.1542776210     1.6675524560
  8     -1.4417015140     9.1542776210     8.3685489570
  8      2.1146232970     7.1374878820     8.3568698410
  8      1.3974568930     7.1374878820     1.6792314220
  8      4.0383944520     6.6996290060     1.6629275780
  8     -0.5263143150     6.6996290060     8.3731739860
  8      2.3191170660     4.6636769210     1.6402539410
  8      1.1929631240     4.6636769210     8.3958473210
  8     -0.7492382660     2.5558369860     8.4452748690
  8      4.2613183760     2.5558369860     1.5908263930
  8     -0.0642424920     4.6204653800     3.9266633530
  8      3.5763225770     4.6204653800     6.1094376080
  8      2.6455803900     9.1696628190     3.9810622630
  8      0.8664998000     9.1696628190     6.0550390000
  1      0.0293734210     4.5398488600     2.9683192360
  1      3.4827067270     4.5398488600     7.0677820260
  1      2.6201861380     0.1492820400     3.0289151910
  1      0.8918941050     0.1492820400     7.0071857700
 RECIP-PRIMVEC
    0.1891932883   -0.0000000000    0.0334331023

    0.0000000000    0.1089467255   -0.0000000000

    0.0000000000    0.0000000000    0.0996402860

 RECIP-CONVVEC
    0.1891932883   -0.0000000000    0.0334331023

    0.0000000000    0.1089467255   -0.0000000000

    0.0000000000    0.0000000000    0.0996402860

 WIGNER-SEITZ-PRIMCELL
           4
 -0.2642800E+01  0.4589399E+01 -0.4707734E+01  -0.3303039E+00  0.0000000E+00 -0.9438746E+00
 -0.8692803E+00  0.4589399E+01 -0.5328367E+01  -0.3303039E+00  0.0000000E+00 -0.9438746E+00
 -0.8692803E+00 -0.4589399E+01 -0.5328367E+01  -0.3303039E+00  0.0000000E+00 -0.9438746E+00
 -0.2642800E+01 -0.4589399E+01 -0.4707734E+01  -0.3303039E+00  0.0000000E+00 -0.9438746E+00
           4
 -0.2642800E+01  0.4589399E+01 -0.4707734E+01  -0.1000000E+01 -0.0000000E+00 -0.0000000E+00
 -0.2642800E+01 -0.4589399E+01 -0.4707734E+01  -0.1000000E+01 -0.0000000E+00 -0.0000000E+00
 -0.2642800E+01 -0.4589399E+01  0.4707734E+01  -0.1000000E+01 -0.0000000E+00 -0.0000000E+00
 -0.2642800E+01  0.4589399E+01  0.4707734E+01  -0.1000000E+01 -0.0000000E+00 -0.0000000E+00
           6
  0.2642800E+01 -0.4589399E+01  0.4707734E+01  -0.0000000E+00 -0.1000000E+01 -0.5415026E-15
  0.8692803E+00 -0.4589399E+01  0.5328367E+01  -0.0000000E+00 -0.1000000E+01 -0.5415026E-15
 -0.2642800E+01 -0.4589399E+01  0.4707734E+01  -0.0000000E+00 -0.1000000E+01 -0.5415026E-15
 -0.2642800E+01 -0.4589399E+01 -0.4707734E+01  -0.0000000E+00 -0.1000000E+01 -0.5415026E-15
 -0.8692803E+00 -0.4589399E+01 -0.5328367E+01  -0.0000000E+00 -0.1000000E+01 -0.5415026E-15
  0.2642800E+01 -0.4589399E+01 -0.4707734E+01  -0.0000000E+00 -0.1000000E+01 -0.5415026E-15
           4
  0.2642800E+01  0.4589399E+01 -0.4707734E+01   0.1740178E+00  0.0000000E+00 -0.9847425E+00
  0.2642800E+01 -0.4589399E+01 -0.4707734E+01   0.1740178E+00  0.0000000E+00 -0.9847425E+00
 -0.8692803E+00 -0.4589399E+01 -0.5328367E+01   0.1740178E+00  0.0000000E+00 -0.9847425E+00
 -0.8692803E+00  0.4589399E+01 -0.5328367E+01   0.1740178E+00  0.0000000E+00 -0.9847425E+00
           4
 -0.2642800E+01  0.4589399E+01  0.4707734E+01  -0.1740178E+00 -0.1085257E-15  0.9847425E+00
 -0.2642800E+01 -0.4589399E+01  0.4707734E+01  -0.1740178E+00 -0.1085257E-15  0.9847425E+00
  0.8692803E+00 -0.4589399E+01  0.5328367E+01  -0.1740178E+00 -0.1085257E-15  0.9847425E+00
  0.8692803E+00  0.4589399E+01  0.5328367E+01  -0.1740178E+00 -0.1085257E-15  0.9847425E+00
           6
  0.2642800E+01  0.4589399E+01 -0.4707734E+01   0.0000000E+00  0.1000000E+01 -0.0000000E+00
 -0.8692803E+00  0.4589399E+01 -0.5328367E+01   0.0000000E+00  0.1000000E+01 -0.0000000E+00
 -0.2642800E+01  0.4589399E+01 -0.4707734E+01   0.0000000E+00  0.1000000E+01 -0.0000000E+00
 -0.2642800E+01  0.4589399E+01  0.4707734E+01   0.0000000E+00  0.1000000E+01 -0.0000000E+00
  0.8692803E+00  0.4589399E+01  0.5328367E+01   0.0000000E+00  0.1000000E+01 -0.0000000E+00
  0.2642800E+01  0.4589399E+01  0.4707734E+01   0.0000000E+00  0.1000000E+01 -0.0000000E+00
           4
  0.2642800E+01  0.4589399E+01  0.4707734E+01   0.1000000E+01  0.0000000E+00  0.0000000E+00
  0.2642800E+01 -0.4589399E+01  0.4707734E+01   0.1000000E+01  0.0000000E+00  0.0000000E+00
  0.2642800E+01 -0.4589399E+01 -0.4707734E+01   0.1000000E+01  0.0000000E+00  0.0000000E+00
  0.2642800E+01  0.4589399E+01 -0.4707734E+01   0.1000000E+01  0.0000000E+00  0.0000000E+00
           4
  0.8692803E+00 -0.4589399E+01  0.5328367E+01   0.3303039E+00 -0.2059931E-15  0.9438746E+00
  0.2642800E+01 -0.4589399E+01  0.4707734E+01   0.3303039E+00 -0.2059931E-15  0.9438746E+00
  0.2642800E+01  0.4589399E+01  0.4707734E+01   0.3303039E+00 -0.2059931E-15  0.9438746E+00
  0.8692803E+00  0.4589399E+01  0.5328367E+01   0.3303039E+00 -0.2059931E-15  0.9438746E+00
 WIGNER-SEITZ-PRIMCELL_END
 WIGNER-SEITZ-CONVCELL
           4
 -0.2642800E+01  0.4589399E+01 -0.4707734E+01  -0.3303039E+00  0.0000000E+00 -0.9438746E+00
 -0.8692803E+00  0.4589399E+01 -0.5328367E+01  -0.3303039E+00  0.0000000E+00 -0.9438746E+00
 -0.8692803E+00 -0.4589399E+01 -0.5328367E+01  -0.3303039E+00  0.0000000E+00 -0.9438746E+00
 -0.2642800E+01 -0.4589399E+01 -0.4707734E+01  -0.3303039E+00  0.0000000E+00 -0.9438746E+00
           4
 -0.2642800E+01  0.4589399E+01 -0.4707734E+01  -0.1000000E+01 -0.0000000E+00 -0.0000000E+00
 -0.2642800E+01 -0.4589399E+01 -0.4707734E+01  -0.1000000E+01 -0.0000000E+00 -0.0000000E+00
 -0.2642800E+01 -0.4589399E+01  0.4707734E+01  -0.1000000E+01 -0.0000000E+00 -0.0000000E+00
 -0.2642800E+01  0.4589399E+01  0.4707734E+01  -0.1000000E+01 -0.0000000E+00 -0.0000000E+00
           6
  0.2642800E+01 -0.4589399E+01  0.4707734E+01  -0.0000000E+00 -0.1000000E+01 -0.5415026E-15
  0.8692803E+00 -0.4589399E+01  0.5328367E+01  -0.0000000E+00 -0.1000000E+01 -0.5415026E-15
 -0.2642800E+01 -0.4589399E+01  0.4707734E+01  -0.0000000E+00 -0.1000000E+01 -0.5415026E-15
 -0.2642800E+01 -0.4589399E+01 -0.4707734E+01  -0.0000000E+00 -0.1000000E+01 -0.5415026E-15
 -0.8692803E+00 -0.4589399E+01 -0.5328367E+01  -0.0000000E+00 -0.1000000E+01 -0.5415026E-15
  0.2642800E+01 -0.4589399E+01 -0.4707734E+01  -0.0000000E+00 -0.1000000E+01 -0.5415026E-15
           4
  0.2642800E+01  0.4589399E+01 -0.4707734E+01   0.1740178E+00  0.0000000E+00 -0.9847425E+00
  0.2642800E+01 -0.4589399E+01 -0.4707734E+01   0.1740178E+00  0.0000000E+00 -0.9847425E+00
 -0.8692803E+00 -0.4589399E+01 -0.5328367E+01   0.1740178E+00  0.0000000E+00 -0.9847425E+00
 -0.8692803E+00  0.4589399E+01 -0.5328367E+01   0.1740178E+00  0.0000000E+00 -0.9847425E+00
           4
 -0.2642800E+01  0.4589399E+01  0.4707734E+01  -0.1740178E+00 -0.1085257E-15  0.9847425E+00
 -0.2642800E+01 -0.4589399E+01  0.4707734E+01  -0.1740178E+00 -0.1085257E-15  0.9847425E+00
  0.8692803E+00 -0.4589399E+01  0.5328367E+01  -0.1740178E+00 -0.1085257E-15  0.9847425E+00
  0.8692803E+00  0.4589399E+01  0.5328367E+01  -0.1740178E+00 -0.1085257E-15  0.9847425E+00
           6
  0.2642800E+01  0.4589399E+01 -0.4707734E+01   0.0000000E+00  0.1000000E+01 -0.0000000E+00
 -0.8692803E+00  0.4589399E+01 -0.5328367E+01   0.0000000E+00  0.1000000E+01 -0.0000000E+00
 -0.2642800E+01  0.4589399E+01 -0.4707734E+01   0.0000000E+00  0.1000000E+01 -0.0000000E+00
 -0.2642800E+01  0.4589399E+01  0.4707734E+01   0.0000000E+00  0.1000000E+01 -0.0000000E+00
  0.8692803E+00  0.4589399E+01  0.5328367E+01   0.0000000E+00  0.1000000E+01 -0.0000000E+00
  0.2642800E+01  0.4589399E+01  0.4707734E+01   0.0000000E+00  0.1000000E+01 -0.0000000E+00
           4
  0.2642800E+01  0.4589399E+01  0.4707734E+01   0.1000000E+01  0.0000000E+00  0.0000000E+00
  0.2642800E+01 -0.4589399E+01  0.4707734E+01   0.1000000E+01  0.0000000E+00  0.0000000E+00
  0.2642800E+01 -0.4589399E+01 -0.4707734E+01   0.1000000E+01  0.0000000E+00  0.0000000E+00
  0.2642800E+01  0.4589399E+01 -0.4707734E+01   0.1000000E+01  0.0000000E+00  0.0000000E+00
           4
  0.8692803E+00 -0.4589399E+01  0.5328367E+01   0.3303039E+00 -0.2059931E-15  0.9438746E+00
  0.2642800E+01 -0.4589399E+01  0.4707734E+01   0.3303039E+00 -0.2059931E-15  0.9438746E+00
  0.2642800E+01  0.4589399E+01  0.4707734E+01   0.3303039E+00 -0.2059931E-15  0.9438746E+00
  0.8692803E+00  0.4589399E+01  0.5328367E+01   0.3303039E+00 -0.2059931E-15  0.9438746E+00
 WIGNER-SEITZ-CONVCELL_END
 BRILLOUIN-ZONE-PRIMCELL
           4
  0.1004465E+00 -0.5447336E-01 -0.1638704E-01   0.9438746E+00  0.5345016E-16 -0.3303039E+00
  0.8874678E-01 -0.5447336E-01 -0.4982014E-01   0.9438746E+00  0.5345016E-16 -0.3303039E+00
  0.8874678E-01  0.5447336E-01 -0.4982014E-01   0.9438746E+00  0.5345016E-16 -0.3303039E+00
  0.1004465E+00  0.5447336E-01 -0.1638704E-01   0.9438746E+00  0.5345016E-16 -0.3303039E+00
           4
 -0.8874678E-01  0.5447336E-01 -0.4982014E-01   0.0000000E+00  0.0000000E+00 -0.1000000E+01
  0.8874678E-01  0.5447336E-01 -0.4982014E-01   0.0000000E+00  0.0000000E+00 -0.1000000E+01
  0.8874678E-01 -0.5447336E-01 -0.4982014E-01   0.0000000E+00  0.0000000E+00 -0.1000000E+01
 -0.8874678E-01 -0.5447336E-01 -0.4982014E-01   0.0000000E+00  0.0000000E+00 -0.1000000E+01
           6
  0.8874678E-01 -0.5447336E-01  0.4982014E-01   0.0000000E+00 -0.1000000E+01 -0.2923284E-15
 -0.8874678E-01 -0.5447336E-01  0.4982014E-01   0.0000000E+00 -0.1000000E+01 -0.2923284E-15
 -0.1004465E+00 -0.5447336E-01  0.1638704E-01   0.0000000E+00 -0.1000000E+01 -0.2923284E-15
 -0.8874678E-01 -0.5447336E-01 -0.4982014E-01   0.0000000E+00 -0.1000000E+01 -0.2923284E-15
  0.8874678E-01 -0.5447336E-01 -0.4982014E-01   0.0000000E+00 -0.1000000E+01 -0.2923284E-15
  0.1004465E+00 -0.5447336E-01 -0.1638704E-01   0.0000000E+00 -0.1000000E+01 -0.2923284E-15
           4
  0.8874678E-01  0.5447336E-01  0.4982014E-01   0.9847425E+00  0.2220266E-16  0.1740178E+00
  0.8874678E-01 -0.5447336E-01  0.4982014E-01   0.9847425E+00  0.2220266E-16  0.1740178E+00
  0.1004465E+00 -0.5447336E-01 -0.1638704E-01   0.9847425E+00  0.2220266E-16  0.1740178E+00
  0.1004465E+00  0.5447336E-01 -0.1638704E-01   0.9847425E+00  0.2220266E-16  0.1740178E+00
           4
 -0.1004465E+00  0.5447336E-01  0.1638704E-01  -0.9847425E+00  0.1480177E-16 -0.1740178E+00
 -0.8874678E-01  0.5447336E-01 -0.4982014E-01  -0.9847425E+00  0.1480177E-16 -0.1740178E+00
 -0.8874678E-01 -0.5447336E-01 -0.4982014E-01  -0.9847425E+00  0.1480177E-16 -0.1740178E+00
 -0.1004465E+00 -0.5447336E-01  0.1638704E-01  -0.9847425E+00  0.1480177E-16 -0.1740178E+00
           6
  0.1004465E+00  0.5447336E-01 -0.1638704E-01  -0.0000000E+00  0.1000000E+01  0.2923284E-15
  0.8874678E-01  0.5447336E-01 -0.4982014E-01  -0.0000000E+00  0.1000000E+01  0.2923284E-15
 -0.8874678E-01  0.5447336E-01 -0.4982014E-01  -0.0000000E+00  0.1000000E+01  0.2923284E-15
 -0.1004465E+00  0.5447336E-01  0.1638704E-01  -0.0000000E+00  0.1000000E+01  0.2923284E-15
 -0.8874678E-01  0.5447336E-01  0.4982014E-01  -0.0000000E+00  0.1000000E+01  0.2923284E-15
  0.8874678E-01  0.5447336E-01  0.4982014E-01  -0.0000000E+00  0.1000000E+01  0.2923284E-15
           4
 -0.8874678E-01 -0.5447336E-01  0.4982014E-01  -0.0000000E+00 -0.0000000E+00  0.1000000E+01
  0.8874678E-01 -0.5447336E-01  0.4982014E-01  -0.0000000E+00 -0.0000000E+00  0.1000000E+01
  0.8874678E-01  0.5447336E-01  0.4982014E-01  -0.0000000E+00 -0.0000000E+00  0.1000000E+01
 -0.8874678E-01  0.5447336E-01  0.4982014E-01  -0.0000000E+00 -0.0000000E+00  0.1000000E+01
           4
 -0.1004465E+00  0.5447336E-01  0.1638704E-01  -0.9438746E+00 -0.0000000E+00  0.3303039E+00
 -0.1004465E+00 -0.5447336E-01  0.1638704E-01  -0.9438746E+00 -0.0000000E+00  0.3303039E+00
 -0.8874678E-01 -0.5447336E-01  0.4982014E-01  -0.9438746E+00 -0.0000000E+00  0.3303039E+00
 -0.8874678E-01  0.5447336E-01  0.4982014E-01  -0.9438746E+00 -0.0000000E+00  0.3303039E+00
 BRILLOUIN-ZONE-PRIMCELL_END
 BRILLOUIN-ZONE-CONVCELL
           4
  0.1004465E+00 -0.5447336E-01 -0.1638704E-01   0.9438746E+00  0.5345016E-16 -0.3303039E+00
  0.8874678E-01 -0.5447336E-01 -0.4982014E-01   0.9438746E+00  0.5345016E-16 -0.3303039E+00
  0.8874678E-01  0.5447336E-01 -0.4982014E-01   0.9438746E+00  0.5345016E-16 -0.3303039E+00
  0.1004465E+00  0.5447336E-01 -0.1638704E-01   0.9438746E+00  0.5345016E-16 -0.3303039E+00
           4
 -0.8874678E-01  0.5447336E-01 -0.4982014E-01   0.0000000E+00  0.0000000E+00 -0.1000000E+01
  0.8874678E-01  0.5447336E-01 -0.4982014E-01   0.0000000E+00  0.0000000E+00 -0.1000000E+01
  0.8874678E-01 -0.5447336E-01 -0.4982014E-01   0.0000000E+00  0.0000000E+00 -0.1000000E+01
 -0.8874678E-01 -0.5447336E-01 -0.4982014E-01   0.0000000E+00  0.0000000E+00 -0.1000000E+01
           6
  0.8874678E-01 -0.5447336E-01  0.4982014E-01   0.0000000E+00 -0.1000000E+01 -0.2923284E-15
 -0.8874678E-01 -0.5447336E-01  0.4982014E-01   0.0000000E+00 -0.1000000E+01 -0.2923284E-15
 -0.1004465E+00 -0.5447336E-01  0.1638704E-01   0.0000000E+00 -0.1000000E+01 -0.2923284E-15
 -0.8874678E-01 -0.5447336E-01 -0.4982014E-01   0.0000000E+00 -0.1000000E+01 -0.2923284E-15
  0.8874678E-01 -0.5447336E-01 -0.4982014E-01   0.0000000E+00 -0.1000000E+01 -0.2923284E-15
  0.1004465E+00 -0.5447336E-01 -0.1638704E-01   0.0000000E+00 -0.1000000E+01 -0.2923284E-15
           4
  0.8874678E-01  0.5447336E-01  0.4982014E-01   0.9847425E+00  0.2220266E-16  0.1740178E+00
  0.8874678E-01 -0.5447336E-01  0.4982014E-01   0.9847425E+00  0.2220266E-16  0.1740178E+00
  0.1004465E+00 -0.5447336E-01 -0.1638704E-01   0.9847425E+00  0.2220266E-16  0.1740178E+00
  0.1004465E+00  0.5447336E-01 -0.1638704E-01   0.9847425E+00  0.2220266E-16  0.1740178E+00
           4
 -0.1004465E+00  0.5447336E-01  0.1638704E-01  -0.9847425E+00  0.1480177E-16 -0.1740178E+00
 -0.8874678E-01  0.5447336E-01 -0.4982014E-01  -0.9847425E+00  0.1480177E-16 -0.1740178E+00
 -0.8874678E-01 -0.5447336E-01 -0.4982014E-01  -0.9847425E+00  0.1480177E-16 -0.1740178E+00
 -0.1004465E+00 -0.5447336E-01  0.1638704E-01  -0.9847425E+00  0.1480177E-16 -0.1740178E+00
           6
  0.1004465E+00  0.5447336E-01 -0.1638704E-01  -0.0000000E+00  0.1000000E+01  0.2923284E-15
  0.8874678E-01  0.5447336E-01 -0.4982014E-01  -0.0000000E+00  0.1000000E+01  0.2923284E-15
 -0.8874678E-01  0.5447336E-01 -0.4982014E-01  -0.0000000E+00  0.1000000E+01  0.2923284E-15
 -0.1004465E+00  0.5447336E-01  0.1638704E-01  -0.0000000E+00  0.1000000E+01  0.2923284E-15
 -0.8874678E-01  0.5447336E-01  0.4982014E-01  -0.0000000E+00  0.1000000E+01  0.2923284E-15
  0.8874678E-01  0.5447336E-01  0.4982014E-01  -0.0000000E+00  0.1000000E+01  0.2923284E-15
           4
 -0.8874678E-01 -0.5447336E-01  0.4982014E-01  -0.0000000E+00 -0.0000000E+00  0.1000000E+01
  0.8874678E-01 -0.5447336E-01  0.4982014E-01  -0.0000000E+00 -0.0000000E+00  0.1000000E+01
  0.8874678E-01  0.5447336E-01  0.4982014E-01  -0.0000000E+00 -0.0000000E+00  0.1000000E+01
 -0.8874678E-01  0.5447336E-01  0.4982014E-01  -0.0000000E+00 -0.0000000E+00  0.1000000E+01
           4
 -0.1004465E+00  0.5447336E-01  0.1638704E-01  -0.9438746E+00 -0.0000000E+00  0.3303039E+00
 -0.1004465E+00 -0.5447336E-01  0.1638704E-01  -0.9438746E+00 -0.0000000E+00  0.3303039E+00
 -0.8874678E-01 -0.5447336E-01  0.4982014E-01  -0.9438746E+00 -0.0000000E+00  0.3303039E+00
 -0.8874678E-01  0.5447336E-01  0.4982014E-01  -0.9438746E+00 -0.0000000E+00  0.3303039E+00
 BRILLOUIN-ZONE-CONVCELL_END
 ATOMS
   19    0.0000000000    4.5702951110    0.0000000000    0.0000000000    0.0002533500    0.0000000000
   19    2.6427998810    0.0082668980    0.0000000000    0.0000000000   -0.0003233200    0.0000000000
   12   -0.8867597870    0.0309827500    5.0180506310    0.0000000000    0.0004348400    0.0000000000
   12   -0.8867597870    3.0415126000    5.0180506310    0.0000000000    0.0004228200    0.0000000000
   12   -0.8867597870    6.1119808340    5.0180506310    0.0000000000   -0.0008763200    0.0000000000
   12    1.7560400950    7.6713907940    5.0180506310    0.0000000000    0.0001178700    0.0000000000
   12    1.7560400950    1.5438199250    5.0180506310    0.0000000000    0.0006905300    0.0000000000
   26    1.7560400950    4.5205241220    5.0180506310    0.0000000000    0.0006058000    0.0000000000
   14    0.0488268260    1.5140668840    2.2253159430    0.0003779300   -0.0001975600    0.0006145000
   14    3.4632532580    1.5140668840    7.8107854700   -0.0003779300   -0.0001975600   -0.0006145000
   14    3.5630723600    7.6598308060    7.7518901080    0.0000025700    0.0002289300    0.0000007200
   14   -0.0509921700    7.6598308060    2.2842111550   -0.0000025700    0.0002289300   -0.0000007200
   14    2.5910495380    6.1287580490    2.2673280550    0.0000623300    0.0000084300    0.0001197700
   14    0.9210305990    6.1287580490    7.7687735090   -0.0000623300    0.0000084300   -0.0001197700
   13    0.8157489530    3.0377415650    7.7909742720   -0.0004816700   -0.0003443300   -0.0000260000
   13    2.6963310790    3.0377415650    2.2451269900    0.0004816700   -0.0003443300    0.0000260000
    8   -0.0066565280    1.4897357680    3.8558917750   -0.0000095300    0.0006834100    0.0002172500
    8    3.5187366120    1.4897357680    6.1802091860    0.0000095300    0.0006834100   -0.0002172500
    8    3.5339299990    7.6490998770    6.1348032550    0.0002800500   -0.0003117300    0.0000395200
    8   -0.0218498100    7.6490998770    3.9012980080   -0.0002800500   -0.0003117300   -0.0000395200
    8    2.6361581190    6.1908669200    3.8895927870   -0.0001590800   -0.0001625600    0.0001997700
    8    0.8759221240    6.1908669200    6.1465081740    0.0001590800   -0.0001625600   -0.0001997700
    8    0.8285877330    3.0098724980    6.0580721900    0.0002897800   -0.0002935000   -0.0002168300
    8    2.6834924570    3.0098724980    3.9780290730   -0.0002897800   -0.0002935000    0.0002168300
    8    1.5341659330    1.8477116890    1.6541771730    0.0001834200    0.0000344600   -0.0001759100
    8    1.9779142840    1.8477116890    8.3819239390   -0.0001834200    0.0000344600    0.0001759100
    8    4.9537816780    9.1542776210    1.6675524560   -0.0002912400    0.0002106200    0.0005219200
    8   -1.4417015140    9.1542776210    8.3685489570    0.0002912400    0.0002106200   -0.0005219200
    8    2.1146232970    7.1374878820    8.3568698410    0.0002160600   -0.0003839900    0.0001422200
    8    1.3974568930    7.1374878820    1.6792314220   -0.0002160600   -0.0003839900   -0.0001422200
    8    4.0383944520    6.6996290060    1.6629275780   -0.0001709600    0.0003746700    0.0002215600
    8   -0.5263143150    6.6996290060    8.3731739860    0.0001709600    0.0003746700   -0.0002215600
    8    2.3191170660    4.6636769210    1.6402539410    0.0004522800   -0.0001821500   -0.0004591000
    8    1.1929631240    4.6636769210    8.3958473210   -0.0004522800   -0.0001821500    0.0004591000
    8   -0.7492382660    2.5558369860    8.4452748690   -0.0003267500   -0.0002675200   -0.0001409000
    8    4.2613183760    2.5558369860    1.5908263930    0.0003267500   -0.0002675200    0.0001409000
    8   -0.0642424920    4.6204653800    3.9266633530   -0.0005239000    0.0002355600   -0.0001884600
    8    3.5763225770    4.6204653800    6.1094376080    0.0005239000    0.0002355600    0.0001884600
    8    2.6455803900    9.1696628190    3.9810622630    0.0002759500   -0.0001918500   -0.0005291400
    8    0.8664998000    9.1696628190    6.0550390000   -0.0002759500   -0.0001918500    0.0005291400
    1    0.0293734210    4.5398488600    2.9683192360   -0.0003311900   -0.0003309500    0.0001684000
    1    3.4827067270    4.5398488600    7.0677820260    0.0003311900   -0.0003309500   -0.0001684000
    1    2.6201861380    0.1492820400    3.0289151910   -0.0001389100    0.0002272700    0.0000692300
    1    0.8918941050    0.1492820400    7.0071857700    0.0001389100    0.0002272700   -0.0000692300
   19   -1.7735195730    4.5702951110   10.0361012630    0.0000000000    0.0002533500    0.0000000000
   19    0.8692803080    0.0082668980   10.0361012630    0.0000000000   -0.0003233200    0.0000000000
   19    5.2855997630    4.5702951110    0.0000000000    0.0000000000    0.0002533500    0.0000000000
   12    4.3988399760    0.0309827500    5.0180506310    0.0000000000    0.0004348400    0.0000000000
   12    4.3988399760    3.0415126000    5.0180506310    0.0000000000    0.0004228200    0.0000000000
   12    4.3988399760    6.1119808340    5.0180506310    0.0000000000   -0.0008763200    0.0000000000
   19    3.5120801900    4.5702951110   10.0361012630    0.0000000000    0.0002533500    0.0000000000
 FRAMES
1      0.0000000000    0.0000000000    0.0000000000      5.2855997630    0.0000000000    0.0000000000
1      0.0000000000    0.0000000000    0.0000000000      0.0000000000    9.1787981240    0.0000000000
1      0.0000000000    0.0000000000    0.0000000000     -1.7735195730    0.0000000000   10.0361012630
1     -1.7735195730    0.0000000000   10.0361012630      3.5120801900    0.0000000000   10.0361012630
1     -1.7735195730    0.0000000000   10.0361012630     -1.7735195730    9.1787981240   10.0361012630
1      0.0000000000    9.1787981240    0.0000000000      5.2855997630    9.1787981240    0.0000000000
1      0.0000000000    9.1787981240    0.0000000000     -1.7735195730    9.1787981240   10.0361012630
1     -1.7735195730    9.1787981240   10.0361012630      3.5120801900    9.1787981240   10.0361012630
1      5.2855997630    0.0000000000    0.0000000000      5.2855997630    9.1787981240    0.0000000000
1      5.2855997630    0.0000000000    0.0000000000      3.5120801900    0.0000000000   10.0361012630
1      3.5120801900    0.0000000000   10.0361012630      3.5120801900    9.1787981240   10.0361012630
1      5.2855997630    9.1787981240    0.0000000000      3.5120801900    9.1787981240   10.0361012630
