 INFO
nunit      1    1    1
unit   cell
celltype   primcell
shape   parapipedal
 END_INFO
 DIM-GROUP
           3           1
 PRIMVEC
    5.2989900630    0.0000000000    0.0000000000
    0.0000000000    9.1953692500    0.0000000000
   -1.8126838200    0.0000000000   10.0463340640
 CONVVEC
    5.2989900630    0.0000000000    0.0000000000
    0.0000000000    9.1953692500    0.0000000000
   -1.8126838200    0.0000000000   10.0463340640
 PRIMCOORD
          44           1
 19      0.0000000000     4.5349808280     0.0000000000     0.0000000000     0.0007595000     0.0000000000
 19      2.6494950310     0.0250536480     0.0000000000     0.0000000000    -0.0003077700     0.0000000000
 12     -0.9063419100     0.0428972650     5.0231670320     0.0000000000    -0.0003200500     0.0000000000
 12     -0.9063419100     3.0688592700     5.0231670320     0.0000000000     0.0000478300     0.0000000000
 12     -0.9063419100     6.1154551740     5.0231670320     0.0000000000     0.0009134100     0.0000000000
 12      1.7431531220     4.5332443920     5.0231670320     0.0000000000     0.0004143400     0.0000000000
 12      1.7431531220     1.6099168270     5.0231670320     0.0000000000    -0.0001559900     0.0000000000
 14      0.0400173310     1.5188855330     2.2277886780    -0.0000202900    -0.0003511200     0.0002269300
 14      3.4462887840     1.5188855330     7.8185456880     0.0000202900    -0.0003511200    -0.0002269300
 14      3.5794226570     7.6722459800     7.7661951690     0.0003191600    -0.0001722000    -0.0004709600
 14     -0.0931164140     7.6722459800     2.2801388960    -0.0003191600    -0.0001722000     0.0004709600
 14      2.5622008220     6.1210285150     2.2620395450    -0.0001603100     0.0001260300     0.0001170800
 14      0.9241054480     6.1210285150     7.7842943690     0.0001603100     0.0001260300    -0.0001170800
 13      0.7929664240     3.0422524750     7.8017336980    -0.0000079700     0.0000087700    -0.0001126700
 13      2.6933398190     3.0422524750     2.2446003670     0.0000079700     0.0000087700     0.0001126700
  8     -0.0180071980     1.5067332220     3.8605328170    -0.0002350100     0.0001978100    -0.0000508900
  8      3.5043132300     1.5067332220     6.1858015390     0.0002350100     0.0001978100     0.0000508900
  8      3.5949064360     7.6630365840     6.1497724780     0.0003082400     0.0003427800    -0.0000156500
  8     -0.1086001930     7.6630365840     3.8965615860    -0.0003082400     0.0003427800     0.0000156500
  8      2.6182524230     6.1177187230     3.8895471200     0.0002443800     0.0000868900    -0.0001580000
  8      0.8680538200     6.1177187230     6.1567869440    -0.0002443800     0.0000868900     0.0001580000
  8      0.8175584050     3.0692925020     6.0716268510    -0.0004409000    -0.0002592400    -0.0000254300
  8      2.6687478380     3.0692925020     3.9747072140     0.0004409000    -0.0002592400     0.0000254300
  8      1.5266779300     1.8503565390     1.6553701290    -0.0001155400    -0.0000118300    -0.0000389800
  8      1.9596283680     1.8503565390     8.3909636340     0.0001155400    -0.0000118300     0.0000389800
  8      4.9650399700     9.1751953390     1.6663145800     0.0002809000    -0.0004736100    -0.0000306400
  8     -1.4787337000     9.1751953390     8.3800193330    -0.0002809000    -0.0004736100     0.0000306400
  8      2.1340697860     7.1213863820     8.3492261530     0.0004185100    -0.0001687100    -0.0002718600
  8      1.3522364580     7.1213863820     1.6971079120    -0.0004185100    -0.0001687100     0.0002718600
  8      3.9920903960     6.7354281990     1.6576871470    -0.0003734100     0.0002735200     0.0000653400
  8     -0.5057841520     6.7354281990     8.3886469180     0.0003734100     0.0002735200    -0.0000653400
  8      2.3200162970     4.6616989950     1.6094348560     0.0001732500     0.0002795700    -0.0000832100
  8      1.1662897600     4.6616989950     8.4368993590    -0.0001732500     0.0002795700     0.0000832100
  8     -0.7758571430     2.5569565560     8.4545100500    -0.0002146300     0.0000811600    -0.0005907600
  8      4.2621634660     2.5569565560     1.5918240140     0.0002146300     0.0000811600     0.0005907600
  8     -0.0192492360     4.6378048830     3.9570120250     0.0000361700    -0.0009381000    -0.0001894700
  8      3.5055555590     4.6378048830     6.0893220400    -0.0000361700    -0.0009381000     0.0001894700
  8      2.6386996470     9.2347827070     3.9914700760    -0.0000470100     0.0000625400    -0.0006214200
  8      0.8476066510     9.2347827070     6.0548636870     0.0000470100     0.0000625400     0.0006214200
  1     -0.0178250820     4.5359497410     2.9973598950    -0.0000250900     0.0000440700    -0.0002526100
  1      3.5041314840     4.5359497410     7.0489741700     0.0000250900     0.0000440700     0.0002526100
  1      2.5452780140     0.1204298880     3.0318216490     0.0002629800     0.0005191400    -0.0003216200
  1      0.9410282290     0.1204298880     7.0145124160    -0.0002629800     0.0005191400     0.0003216200
 26      1.7431531220     7.6853050910     5.0231670320     0.0000000000    -0.0006462200     0.0000000000
 CONVCOORD
          44           1
 19      0.0000000000     4.5349808280     0.0000000000
 19      2.6494950310     0.0250536480     0.0000000000
 12     -0.9063419100     0.0428972650     5.0231670320
 12     -0.9063419100     3.0688592700     5.0231670320
 12     -0.9063419100     6.1154551740     5.0231670320
 12      1.7431531220     4.5332443920     5.0231670320
 12      1.7431531220     1.6099168270     5.0231670320
 14      0.0400173310     1.5188855330     2.2277886780
 14      3.4462887840     1.5188855330     7.8185456880
 14      3.5794226570     7.6722459800     7.7661951690
 14     -0.0931164140     7.6722459800     2.2801388960
 14      2.5622008220     6.1210285150     2.2620395450
 14      0.9241054480     6.1210285150     7.7842943690
 13      0.7929664240     3.0422524750     7.8017336980
 13      2.6933398190     3.0422524750     2.2446003670
  8     -0.0180071980     1.5067332220     3.8605328170
  8      3.5043132300     1.5067332220     6.1858015390
  8      3.5949064360     7.6630365840     6.1497724780
  8     -0.1086001930     7.6630365840     3.8965615860
  8      2.6182524230     6.1177187230     3.8895471200
  8      0.8680538200     6.1177187230     6.1567869440
  8      0.8175584050     3.0692925020     6.0716268510
  8      2.6687478380     3.0692925020     3.9747072140
  8      1.5266779300     1.8503565390     1.6553701290
  8      1.9596283680     1.8503565390     8.3909636340
  8      4.9650399700     9.1751953390     1.6663145800
  8     -1.4787337000     9.1751953390     8.3800193330
  8      2.1340697860     7.1213863820     8.3492261530
  8      1.3522364580     7.1213863820     1.6971079120
  8      3.9920903960     6.7354281990     1.6576871470
  8     -0.5057841520     6.7354281990     8.3886469180
  8      2.3200162970     4.6616989950     1.6094348560
  8      1.1662897600     4.6616989950     8.4368993590
  8     -0.7758571430     2.5569565560     8.4545100500
  8      4.2621634660     2.5569565560     1.5918240140
  8     -0.0192492360     4.6378048830     3.9570120250
  8      3.5055555590     4.6378048830     6.0893220400
  8      2.6386996470     0.0394134570     3.9914700760
  8      0.8476066510     0.0394134570     6.0548636870
  1     -0.0178250820     4.5359497410     2.9973598950
  1      3.5041314840     4.5359497410     7.0489741700
  1      2.5452780140     0.1204298880     3.0318216490
  1      0.9410282290     0.1204298880     7.0145124160
 26      1.7431531220     7.6853050910     5.0231670320
 RECIP-PRIMVEC
    0.1887152057   -0.0000000000    0.0340503310

    0.0000000000    0.1087503909   -0.0000000000

    0.0000000000    0.0000000000    0.0995387963

 RECIP-CONVVEC
    0.1887152057   -0.0000000000    0.0340503310

    0.0000000000    0.1087503909   -0.0000000000

    0.0000000000    0.0000000000    0.0995387963

 WIGNER-SEITZ-PRIMCELL
           4
 -0.2649495E+01  0.4597685E+01 -0.4708646E+01  -0.3278435E+00 -0.1009766E-15 -0.9447320E+00
 -0.8368112E+00  0.4597685E+01 -0.5337688E+01  -0.3278435E+00 -0.1009766E-15 -0.9447320E+00
 -0.8368112E+00 -0.4597685E+01 -0.5337688E+01  -0.3278435E+00 -0.1009766E-15 -0.9447320E+00
 -0.2649495E+01 -0.4597685E+01 -0.4708646E+01  -0.3278435E+00 -0.1009766E-15 -0.9447320E+00
           4
 -0.2649495E+01  0.4597685E+01 -0.4708646E+01  -0.1000000E+01  0.4829488E-16  0.4554862E-32
 -0.2649495E+01 -0.4597685E+01 -0.4708646E+01  -0.1000000E+01  0.4829488E-16  0.4554862E-32
 -0.2649495E+01 -0.4597685E+01  0.4708646E+01  -0.1000000E+01  0.4829488E-16  0.4554862E-32
 -0.2649495E+01  0.4597685E+01  0.4708646E+01  -0.1000000E+01  0.4829488E-16  0.4554862E-32
           6
  0.2649495E+01 -0.4597685E+01  0.4708646E+01  -0.0000000E+00 -0.1000000E+01  0.1065828E-14
  0.8368112E+00 -0.4597685E+01  0.5337688E+01  -0.0000000E+00 -0.1000000E+01  0.1065828E-14
 -0.2649495E+01 -0.4597685E+01  0.4708646E+01  -0.0000000E+00 -0.1000000E+01  0.1065828E-14
 -0.2649495E+01 -0.4597685E+01 -0.4708646E+01  -0.0000000E+00 -0.1000000E+01  0.1065828E-14
 -0.8368112E+00 -0.4597685E+01 -0.5337688E+01  -0.0000000E+00 -0.1000000E+01  0.1065828E-14
  0.2649495E+01 -0.4597685E+01 -0.4708646E+01  -0.0000000E+00 -0.1000000E+01  0.1065828E-14
           4
  0.2649495E+01 -0.4597685E+01 -0.4708646E+01   0.1775651E+00 -0.2181216E-15 -0.9841091E+00
 -0.8368112E+00 -0.4597685E+01 -0.5337688E+01   0.1775651E+00 -0.2181216E-15 -0.9841091E+00
 -0.8368112E+00  0.4597685E+01 -0.5337688E+01   0.1775651E+00 -0.2181216E-15 -0.9841091E+00
  0.2649495E+01  0.4597685E+01 -0.4708646E+01   0.1775651E+00 -0.2181216E-15 -0.9841091E+00
           4
 -0.2649495E+01  0.4597685E+01  0.4708646E+01  -0.1775651E+00 -0.0000000E+00  0.9841091E+00
 -0.2649495E+01 -0.4597685E+01  0.4708646E+01  -0.1775651E+00 -0.0000000E+00  0.9841091E+00
  0.8368112E+00 -0.4597685E+01  0.5337688E+01  -0.1775651E+00 -0.0000000E+00  0.9841091E+00
  0.8368112E+00  0.4597685E+01  0.5337688E+01  -0.1775651E+00 -0.0000000E+00  0.9841091E+00
           6
  0.2649495E+01  0.4597685E+01 -0.4708646E+01   0.0000000E+00  0.1000000E+01  0.1065828E-14
 -0.8368112E+00  0.4597685E+01 -0.5337688E+01   0.0000000E+00  0.1000000E+01  0.1065828E-14
 -0.2649495E+01  0.4597685E+01 -0.4708646E+01   0.0000000E+00  0.1000000E+01  0.1065828E-14
 -0.2649495E+01  0.4597685E+01  0.4708646E+01   0.0000000E+00  0.1000000E+01  0.1065828E-14
  0.8368112E+00  0.4597685E+01  0.5337688E+01   0.0000000E+00  0.1000000E+01  0.1065828E-14
  0.2649495E+01  0.4597685E+01  0.4708646E+01   0.0000000E+00  0.1000000E+01  0.1065828E-14
           4
  0.2649495E+01  0.4597685E+01  0.4708646E+01   0.1000000E+01 -0.4829488E-16  0.0000000E+00
  0.2649495E+01 -0.4597685E+01  0.4708646E+01   0.1000000E+01 -0.4829488E-16  0.0000000E+00
  0.2649495E+01 -0.4597685E+01 -0.4708646E+01   0.1000000E+01 -0.4829488E-16  0.0000000E+00
  0.2649495E+01  0.4597685E+01 -0.4708646E+01   0.1000000E+01 -0.4829488E-16  0.0000000E+00
           4
  0.8368112E+00 -0.4597685E+01  0.5337688E+01   0.3278435E+00  0.3334111E-16  0.9447320E+00
  0.2649495E+01 -0.4597685E+01  0.4708646E+01   0.3278435E+00  0.3334111E-16  0.9447320E+00
  0.2649495E+01  0.4597685E+01  0.4708646E+01   0.3278435E+00  0.3334111E-16  0.9447320E+00
  0.8368112E+00  0.4597685E+01  0.5337688E+01   0.3278435E+00  0.3334111E-16  0.9447320E+00
 WIGNER-SEITZ-PRIMCELL_END
 WIGNER-SEITZ-CONVCELL
           4
 -0.2649495E+01  0.4597685E+01 -0.4708646E+01  -0.3278435E+00 -0.1009766E-15 -0.9447320E+00
 -0.8368112E+00  0.4597685E+01 -0.5337688E+01  -0.3278435E+00 -0.1009766E-15 -0.9447320E+00
 -0.8368112E+00 -0.4597685E+01 -0.5337688E+01  -0.3278435E+00 -0.1009766E-15 -0.9447320E+00
 -0.2649495E+01 -0.4597685E+01 -0.4708646E+01  -0.3278435E+00 -0.1009766E-15 -0.9447320E+00
           4
 -0.2649495E+01  0.4597685E+01 -0.4708646E+01  -0.1000000E+01  0.4829488E-16  0.4554862E-32
 -0.2649495E+01 -0.4597685E+01 -0.4708646E+01  -0.1000000E+01  0.4829488E-16  0.4554862E-32
 -0.2649495E+01 -0.4597685E+01  0.4708646E+01  -0.1000000E+01  0.4829488E-16  0.4554862E-32
 -0.2649495E+01  0.4597685E+01  0.4708646E+01  -0.1000000E+01  0.4829488E-16  0.4554862E-32
           6
  0.2649495E+01 -0.4597685E+01  0.4708646E+01  -0.0000000E+00 -0.1000000E+01  0.1065828E-14
  0.8368112E+00 -0.4597685E+01  0.5337688E+01  -0.0000000E+00 -0.1000000E+01  0.1065828E-14
 -0.2649495E+01 -0.4597685E+01  0.4708646E+01  -0.0000000E+00 -0.1000000E+01  0.1065828E-14
 -0.2649495E+01 -0.4597685E+01 -0.4708646E+01  -0.0000000E+00 -0.1000000E+01  0.1065828E-14
 -0.8368112E+00 -0.4597685E+01 -0.5337688E+01  -0.0000000E+00 -0.1000000E+01  0.1065828E-14
  0.2649495E+01 -0.4597685E+01 -0.4708646E+01  -0.0000000E+00 -0.1000000E+01  0.1065828E-14
           4
  0.2649495E+01 -0.4597685E+01 -0.4708646E+01   0.1775651E+00 -0.2181216E-15 -0.9841091E+00
 -0.8368112E+00 -0.4597685E+01 -0.5337688E+01   0.1775651E+00 -0.2181216E-15 -0.9841091E+00
 -0.8368112E+00  0.4597685E+01 -0.5337688E+01   0.1775651E+00 -0.2181216E-15 -0.9841091E+00
  0.2649495E+01  0.4597685E+01 -0.4708646E+01   0.1775651E+00 -0.2181216E-15 -0.9841091E+00
           4
 -0.2649495E+01  0.4597685E+01  0.4708646E+01  -0.1775651E+00 -0.0000000E+00  0.9841091E+00
 -0.2649495E+01 -0.4597685E+01  0.4708646E+01  -0.1775651E+00 -0.0000000E+00  0.9841091E+00
  0.8368112E+00 -0.4597685E+01  0.5337688E+01  -0.1775651E+00 -0.0000000E+00  0.9841091E+00
  0.8368112E+00  0.4597685E+01  0.5337688E+01  -0.1775651E+00 -0.0000000E+00  0.9841091E+00
           6
  0.2649495E+01  0.4597685E+01 -0.4708646E+01   0.0000000E+00  0.1000000E+01  0.1065828E-14
 -0.8368112E+00  0.4597685E+01 -0.5337688E+01   0.0000000E+00  0.1000000E+01  0.1065828E-14
 -0.2649495E+01  0.4597685E+01 -0.4708646E+01   0.0000000E+00  0.1000000E+01  0.1065828E-14
 -0.2649495E+01  0.4597685E+01  0.4708646E+01   0.0000000E+00  0.1000000E+01  0.1065828E-14
  0.8368112E+00  0.4597685E+01  0.5337688E+01   0.0000000E+00  0.1000000E+01  0.1065828E-14
  0.2649495E+01  0.4597685E+01  0.4708646E+01   0.0000000E+00  0.1000000E+01  0.1065828E-14
           4
  0.2649495E+01  0.4597685E+01  0.4708646E+01   0.1000000E+01 -0.4829488E-16  0.0000000E+00
  0.2649495E+01 -0.4597685E+01  0.4708646E+01   0.1000000E+01 -0.4829488E-16  0.0000000E+00
  0.2649495E+01 -0.4597685E+01 -0.4708646E+01   0.1000000E+01 -0.4829488E-16  0.0000000E+00
  0.2649495E+01  0.4597685E+01 -0.4708646E+01   0.1000000E+01 -0.4829488E-16  0.0000000E+00
           4
  0.8368112E+00 -0.4597685E+01  0.5337688E+01   0.3278435E+00  0.3334111E-16  0.9447320E+00
  0.2649495E+01 -0.4597685E+01  0.4708646E+01   0.3278435E+00  0.3334111E-16  0.9447320E+00
  0.2649495E+01  0.4597685E+01  0.4708646E+01   0.3278435E+00  0.3334111E-16  0.9447320E+00
  0.8368112E+00  0.4597685E+01  0.5337688E+01   0.3278435E+00  0.3334111E-16  0.9447320E+00
 WIGNER-SEITZ-CONVCELL_END
 BRILLOUIN-ZONE-PRIMCELL
           4
  0.1002657E+00  0.5437520E-01 -0.1571907E-01   0.9447320E+00  0.5532186E-16 -0.3278435E+00
  0.1002657E+00 -0.5437520E-01 -0.1571907E-01   0.9447320E+00  0.5532186E-16 -0.3278435E+00
  0.8844948E-01 -0.5437520E-01 -0.4976940E-01   0.9447320E+00  0.5532186E-16 -0.3278435E+00
  0.8844948E-01  0.5437520E-01 -0.4976940E-01   0.9447320E+00  0.5532186E-16 -0.3278435E+00
           4
 -0.8844948E-01  0.5437520E-01 -0.4976940E-01   0.0000000E+00 -0.5426985E-16 -0.1000000E+01
  0.8844948E-01  0.5437520E-01 -0.4976940E-01   0.0000000E+00 -0.5426985E-16 -0.1000000E+01
  0.8844948E-01 -0.5437520E-01 -0.4976940E-01   0.0000000E+00 -0.5426985E-16 -0.1000000E+01
 -0.8844948E-01 -0.5437520E-01 -0.4976940E-01   0.0000000E+00 -0.5426985E-16 -0.1000000E+01
           6
  0.8844948E-01 -0.5437520E-01  0.4976940E-01   0.0000000E+00 -0.1000000E+01  0.2879941E-15
 -0.8844948E-01 -0.5437520E-01  0.4976940E-01   0.0000000E+00 -0.1000000E+01  0.2879941E-15
 -0.1002657E+00 -0.5437520E-01  0.1571907E-01   0.0000000E+00 -0.1000000E+01  0.2879941E-15
 -0.8844948E-01 -0.5437520E-01 -0.4976940E-01   0.0000000E+00 -0.1000000E+01  0.2879941E-15
  0.8844948E-01 -0.5437520E-01 -0.4976940E-01   0.0000000E+00 -0.1000000E+01  0.2879941E-15
  0.1002657E+00 -0.5437520E-01 -0.1571907E-01   0.0000000E+00 -0.1000000E+01  0.2879941E-15
           4
  0.8844948E-01  0.5437520E-01  0.4976940E-01   0.9841091E+00 -0.3370857E-15  0.1775651E+00
  0.8844948E-01 -0.5437520E-01  0.4976940E-01   0.9841091E+00 -0.3370857E-15  0.1775651E+00
  0.1002657E+00 -0.5437520E-01 -0.1571907E-01   0.9841091E+00 -0.3370857E-15  0.1775651E+00
  0.1002657E+00  0.5437520E-01 -0.1571907E-01   0.9841091E+00 -0.3370857E-15  0.1775651E+00
           4
 -0.8844948E-01  0.5437520E-01 -0.4976940E-01  -0.9841091E+00 -0.1498159E-15 -0.1775651E+00
 -0.8844948E-01 -0.5437520E-01 -0.4976940E-01  -0.9841091E+00 -0.1498159E-15 -0.1775651E+00
 -0.1002657E+00 -0.5437520E-01  0.1571907E-01  -0.9841091E+00 -0.1498159E-15 -0.1775651E+00
 -0.1002657E+00  0.5437520E-01  0.1571907E-01  -0.9841091E+00 -0.1498159E-15 -0.1775651E+00
           6
  0.1002657E+00  0.5437520E-01 -0.1571907E-01  -0.0000000E+00  0.1000000E+01  0.2879941E-15
  0.8844948E-01  0.5437520E-01 -0.4976940E-01  -0.0000000E+00  0.1000000E+01  0.2879941E-15
 -0.8844948E-01  0.5437520E-01 -0.4976940E-01  -0.0000000E+00  0.1000000E+01  0.2879941E-15
 -0.1002657E+00  0.5437520E-01  0.1571907E-01  -0.0000000E+00  0.1000000E+01  0.2879941E-15
 -0.8844948E-01  0.5437520E-01  0.4976940E-01  -0.0000000E+00  0.1000000E+01  0.2879941E-15
  0.8844948E-01  0.5437520E-01  0.4976940E-01  -0.0000000E+00  0.1000000E+01  0.2879941E-15
           4
  0.8844948E-01 -0.5437520E-01  0.4976940E-01  -0.0000000E+00 -0.0000000E+00  0.1000000E+01
  0.8844948E-01  0.5437520E-01  0.4976940E-01  -0.0000000E+00 -0.0000000E+00  0.1000000E+01
 -0.8844948E-01  0.5437520E-01  0.4976940E-01  -0.0000000E+00 -0.0000000E+00  0.1000000E+01
 -0.8844948E-01 -0.5437520E-01  0.4976940E-01  -0.0000000E+00 -0.0000000E+00  0.1000000E+01
           4
 -0.1002657E+00  0.5437520E-01  0.1571907E-01  -0.9447320E+00 -0.1383046E-15  0.3278435E+00
 -0.1002657E+00 -0.5437520E-01  0.1571907E-01  -0.9447320E+00 -0.1383046E-15  0.3278435E+00
 -0.8844948E-01 -0.5437520E-01  0.4976940E-01  -0.9447320E+00 -0.1383046E-15  0.3278435E+00
 -0.8844948E-01  0.5437520E-01  0.4976940E-01  -0.9447320E+00 -0.1383046E-15  0.3278435E+00
 BRILLOUIN-ZONE-PRIMCELL_END
 BRILLOUIN-ZONE-CONVCELL
           4
  0.1002657E+00  0.5437520E-01 -0.1571907E-01   0.9447320E+00  0.5532186E-16 -0.3278435E+00
  0.1002657E+00 -0.5437520E-01 -0.1571907E-01   0.9447320E+00  0.5532186E-16 -0.3278435E+00
  0.8844948E-01 -0.5437520E-01 -0.4976940E-01   0.9447320E+00  0.5532186E-16 -0.3278435E+00
  0.8844948E-01  0.5437520E-01 -0.4976940E-01   0.9447320E+00  0.5532186E-16 -0.3278435E+00
           4
 -0.8844948E-01  0.5437520E-01 -0.4976940E-01   0.0000000E+00 -0.5426985E-16 -0.1000000E+01
  0.8844948E-01  0.5437520E-01 -0.4976940E-01   0.0000000E+00 -0.5426985E-16 -0.1000000E+01
  0.8844948E-01 -0.5437520E-01 -0.4976940E-01   0.0000000E+00 -0.5426985E-16 -0.1000000E+01
 -0.8844948E-01 -0.5437520E-01 -0.4976940E-01   0.0000000E+00 -0.5426985E-16 -0.1000000E+01
           6
  0.8844948E-01 -0.5437520E-01  0.4976940E-01   0.0000000E+00 -0.1000000E+01  0.2879941E-15
 -0.8844948E-01 -0.5437520E-01  0.4976940E-01   0.0000000E+00 -0.1000000E+01  0.2879941E-15
 -0.1002657E+00 -0.5437520E-01  0.1571907E-01   0.0000000E+00 -0.1000000E+01  0.2879941E-15
 -0.8844948E-01 -0.5437520E-01 -0.4976940E-01   0.0000000E+00 -0.1000000E+01  0.2879941E-15
  0.8844948E-01 -0.5437520E-01 -0.4976940E-01   0.0000000E+00 -0.1000000E+01  0.2879941E-15
  0.1002657E+00 -0.5437520E-01 -0.1571907E-01   0.0000000E+00 -0.1000000E+01  0.2879941E-15
           4
  0.8844948E-01  0.5437520E-01  0.4976940E-01   0.9841091E+00 -0.3370857E-15  0.1775651E+00
  0.8844948E-01 -0.5437520E-01  0.4976940E-01   0.9841091E+00 -0.3370857E-15  0.1775651E+00
  0.1002657E+00 -0.5437520E-01 -0.1571907E-01   0.9841091E+00 -0.3370857E-15  0.1775651E+00
  0.1002657E+00  0.5437520E-01 -0.1571907E-01   0.9841091E+00 -0.3370857E-15  0.1775651E+00
           4
 -0.8844948E-01  0.5437520E-01 -0.4976940E-01  -0.9841091E+00 -0.1498159E-15 -0.1775651E+00
 -0.8844948E-01 -0.5437520E-01 -0.4976940E-01  -0.9841091E+00 -0.1498159E-15 -0.1775651E+00
 -0.1002657E+00 -0.5437520E-01  0.1571907E-01  -0.9841091E+00 -0.1498159E-15 -0.1775651E+00
 -0.1002657E+00  0.5437520E-01  0.1571907E-01  -0.9841091E+00 -0.1498159E-15 -0.1775651E+00
           6
  0.1002657E+00  0.5437520E-01 -0.1571907E-01  -0.0000000E+00  0.1000000E+01  0.2879941E-15
  0.8844948E-01  0.5437520E-01 -0.4976940E-01  -0.0000000E+00  0.1000000E+01  0.2879941E-15
 -0.8844948E-01  0.5437520E-01 -0.4976940E-01  -0.0000000E+00  0.1000000E+01  0.2879941E-15
 -0.1002657E+00  0.5437520E-01  0.1571907E-01  -0.0000000E+00  0.1000000E+01  0.2879941E-15
 -0.8844948E-01  0.5437520E-01  0.4976940E-01  -0.0000000E+00  0.1000000E+01  0.2879941E-15
  0.8844948E-01  0.5437520E-01  0.4976940E-01  -0.0000000E+00  0.1000000E+01  0.2879941E-15
           4
  0.8844948E-01 -0.5437520E-01  0.4976940E-01  -0.0000000E+00 -0.0000000E+00  0.1000000E+01
  0.8844948E-01  0.5437520E-01  0.4976940E-01  -0.0000000E+00 -0.0000000E+00  0.1000000E+01
 -0.8844948E-01  0.5437520E-01  0.4976940E-01  -0.0000000E+00 -0.0000000E+00  0.1000000E+01
 -0.8844948E-01 -0.5437520E-01  0.4976940E-01  -0.0000000E+00 -0.0000000E+00  0.1000000E+01
           4
 -0.1002657E+00  0.5437520E-01  0.1571907E-01  -0.9447320E+00 -0.1383046E-15  0.3278435E+00
 -0.1002657E+00 -0.5437520E-01  0.1571907E-01  -0.9447320E+00 -0.1383046E-15  0.3278435E+00
 -0.8844948E-01 -0.5437520E-01  0.4976940E-01  -0.9447320E+00 -0.1383046E-15  0.3278435E+00
 -0.8844948E-01  0.5437520E-01  0.4976940E-01  -0.9447320E+00 -0.1383046E-15  0.3278435E+00
 BRILLOUIN-ZONE-CONVCELL_END
 ATOMS
   19    0.0000000000    4.5349808280    0.0000000000    0.0000000000    0.0007595000    0.0000000000
   19    2.6494950310    0.0250536480    0.0000000000    0.0000000000   -0.0003077700    0.0000000000
   12   -0.9063419100    0.0428972650    5.0231670320    0.0000000000   -0.0003200500    0.0000000000
   12   -0.9063419100    3.0688592700    5.0231670320    0.0000000000    0.0000478300    0.0000000000
   12   -0.9063419100    6.1154551740    5.0231670320    0.0000000000    0.0009134100    0.0000000000
   12    1.7431531220    4.5332443920    5.0231670320    0.0000000000    0.0004143400    0.0000000000
   12    1.7431531220    1.6099168270    5.0231670320    0.0000000000   -0.0001559900    0.0000000000
   14    0.0400173310    1.5188855330    2.2277886780   -0.0000202900   -0.0003511200    0.0002269300
   14    3.4462887840    1.5188855330    7.8185456880    0.0000202900   -0.0003511200   -0.0002269300
   14    3.5794226570    7.6722459800    7.7661951690    0.0003191600   -0.0001722000   -0.0004709600
   14   -0.0931164140    7.6722459800    2.2801388960   -0.0003191600   -0.0001722000    0.0004709600
   14    2.5622008220    6.1210285150    2.2620395450   -0.0001603100    0.0001260300    0.0001170800
   14    0.9241054480    6.1210285150    7.7842943690    0.0001603100    0.0001260300   -0.0001170800
   13    0.7929664240    3.0422524750    7.8017336980   -0.0000079700    0.0000087700   -0.0001126700
   13    2.6933398190    3.0422524750    2.2446003670    0.0000079700    0.0000087700    0.0001126700
    8   -0.0180071980    1.5067332220    3.8605328170   -0.0002350100    0.0001978100   -0.0000508900
    8    3.5043132300    1.5067332220    6.1858015390    0.0002350100    0.0001978100    0.0000508900
    8    3.5949064360    7.6630365840    6.1497724780    0.0003082400    0.0003427800   -0.0000156500
    8   -0.1086001930    7.6630365840    3.8965615860   -0.0003082400    0.0003427800    0.0000156500
    8    2.6182524230    6.1177187230    3.8895471200    0.0002443800    0.0000868900   -0.0001580000
    8    0.8680538200    6.1177187230    6.1567869440   -0.0002443800    0.0000868900    0.0001580000
    8    0.8175584050    3.0692925020    6.0716268510   -0.0004409000   -0.0002592400   -0.0000254300
    8    2.6687478380    3.0692925020    3.9747072140    0.0004409000   -0.0002592400    0.0000254300
    8    1.5266779300    1.8503565390    1.6553701290   -0.0001155400   -0.0000118300   -0.0000389800
    8    1.9596283680    1.8503565390    8.3909636340    0.0001155400   -0.0000118300    0.0000389800
    8    4.9650399700    9.1751953390    1.6663145800    0.0002809000   -0.0004736100   -0.0000306400
    8   -1.4787337000    9.1751953390    8.3800193330   -0.0002809000   -0.0004736100    0.0000306400
    8    2.1340697860    7.1213863820    8.3492261530    0.0004185100   -0.0001687100   -0.0002718600
    8    1.3522364580    7.1213863820    1.6971079120   -0.0004185100   -0.0001687100    0.0002718600
    8    3.9920903960    6.7354281990    1.6576871470   -0.0003734100    0.0002735200    0.0000653400
    8   -0.5057841520    6.7354281990    8.3886469180    0.0003734100    0.0002735200   -0.0000653400
    8    2.3200162970    4.6616989950    1.6094348560    0.0001732500    0.0002795700   -0.0000832100
    8    1.1662897600    4.6616989950    8.4368993590   -0.0001732500    0.0002795700    0.0000832100
    8   -0.7758571430    2.5569565560    8.4545100500   -0.0002146300    0.0000811600   -0.0005907600
    8    4.2621634660    2.5569565560    1.5918240140    0.0002146300    0.0000811600    0.0005907600
    8   -0.0192492360    4.6378048830    3.9570120250    0.0000361700   -0.0009381000   -0.0001894700
    8    3.5055555590    4.6378048830    6.0893220400   -0.0000361700   -0.0009381000    0.0001894700
    8    2.6386996470    0.0394134570    3.9914700760   -0.0000470100    0.0000625400   -0.0006214200
    8    0.8476066510    0.0394134570    6.0548636870    0.0000470100    0.0000625400    0.0006214200
    1   -0.0178250820    4.5359497410    2.9973598950   -0.0000250900    0.0000440700   -0.0002526100
    1    3.5041314840    4.5359497410    7.0489741700    0.0000250900    0.0000440700    0.0002526100
    1    2.5452780140    0.1204298880    3.0318216490    0.0002629800    0.0005191400   -0.0003216200
    1    0.9410282290    0.1204298880    7.0145124160   -0.0002629800    0.0005191400    0.0003216200
   26    1.7431531220    7.6853050910    5.0231670320    0.0000000000   -0.0006462200    0.0000000000
   19   -1.8126838200    4.5349808280   10.0463340640    0.0000000000    0.0007595000    0.0000000000
   19    0.8368112110    0.0250536480   10.0463340640    0.0000000000   -0.0003077700    0.0000000000
   19    5.2989900630    4.5349808280    0.0000000000    0.0000000000    0.0007595000    0.0000000000
   12    4.3926481530    0.0428972650    5.0231670320    0.0000000000   -0.0003200500    0.0000000000
   12    4.3926481530    3.0688592700    5.0231670320    0.0000000000    0.0000478300    0.0000000000
   12    4.3926481530    6.1154551740    5.0231670320    0.0000000000    0.0009134100    0.0000000000
   19    3.4863062430    4.5349808280   10.0463340640    0.0000000000    0.0007595000    0.0000000000
 FRAMES
1      0.0000000000    0.0000000000    0.0000000000      5.2989900630    0.0000000000    0.0000000000
1      0.0000000000    0.0000000000    0.0000000000      0.0000000000    9.1953692500    0.0000000000
1      0.0000000000    0.0000000000    0.0000000000     -1.8126838200    0.0000000000   10.0463340640
1     -1.8126838200    0.0000000000   10.0463340640      3.4863062430    0.0000000000   10.0463340640
1     -1.8126838200    0.0000000000   10.0463340640     -1.8126838200    9.1953692500   10.0463340640
1      0.0000000000    9.1953692500    0.0000000000      5.2989900630    9.1953692500    0.0000000000
1      0.0000000000    9.1953692500    0.0000000000     -1.8126838200    9.1953692500   10.0463340640
1     -1.8126838200    9.1953692500   10.0463340640      3.4863062430    9.1953692500   10.0463340640
1      5.2989900630    0.0000000000    0.0000000000      5.2989900630    9.1953692500    0.0000000000
1      5.2989900630    0.0000000000    0.0000000000      3.4863062430    0.0000000000   10.0463340640
1      3.4863062430    0.0000000000   10.0463340640      3.4863062430    9.1953692500   10.0463340640
1      5.2989900630    9.1953692500    0.0000000000      3.4863062430    9.1953692500   10.0463340640
