 INFO
nunit      1    1    1
unit   cell
celltype   primcell
shape   parapipedal
 END_INFO
 DIM-GROUP
           3           1
 PRIMVEC
    5.2981051320    0.0000000000    0.0000000000
    0.0000000000    9.2059513330    0.0000000000
   -1.7927543180    0.0000000000   10.2706244170
 CONVVEC
    5.2981051320    0.0000000000    0.0000000000
    0.0000000000    9.2059513330    0.0000000000
   -1.7927543180    0.0000000000   10.2706244170
 PRIMCOORD
          44           1
 19      0.0000000000     4.5099518790     0.0000000000     0.0000000000    -0.0005188300     0.0000000000
 19      2.6490536310     0.0753741140     0.0000000000     0.0000000000     0.0004916300     0.0000000000
 12     -0.8963781120     0.0341321670     5.1353126770     0.0000000000     0.0000955300     0.0000000000
 12     -0.8963781120     3.0821676480     5.1353126770     0.0000000000    -0.0000252800     0.0000000000
 12     -0.8963781120     6.0960317950     5.1353126770     0.0000000000    -0.0000941900     0.0000000000
 12      1.7526755190     7.6631585370     5.1353126770     0.0000000000    -0.0000011400     0.0000000000
 12      1.7526755190     1.6127738790     5.1353126770     0.0000000000    -0.0002740400     0.0000000000
 14      0.0305066770     1.5207525150     2.3407374270    -0.0001307500    -0.0002489600    -0.0002431100
 14      3.4748442460     1.5207525150     7.9298883800     0.0001307500    -0.0002489600     0.0002431100
 14      3.5791839110     7.6774164450     7.8666491440     0.0000044000     0.0000662500     0.0004288700
 14     -0.0738327660     7.6774164450     2.4039760570    -0.0000044000     0.0000662500    -0.0004288700
 14      2.5701723260     6.1268514210     2.3766959280    -0.0000517600     0.0001150600    -0.0005098400
 14      0.9351786050     6.1268514210     7.8939291300     0.0000517600     0.0001150600     0.0005098400
 13      0.8277914750     3.0642277830     7.9124111730     0.0001672300    -0.0000141500     0.0000740100
 13      2.6775594320     3.0642277830     2.3582140270    -0.0001672300    -0.0000141500    -0.0000740100
  8     -0.0254751850     1.5132623730     3.9739901390     0.0000097200     0.0001367500    -0.0001690800
  8      3.5308258510     1.5132623730     6.2966355240    -0.0000097200     0.0001367500     0.0001690800
  8      3.5455942310     7.6592864070     6.2472220350     0.0001267600     0.0000029700     0.0003936900
  8     -0.0402432720     7.6592864070     4.0234033200    -0.0001267600     0.0000029700    -0.0003936900
  8      2.6204060910     6.1384827920     4.0078647120    -0.0000820600    -0.0003010400    -0.0002529500
  8      0.8849449480     6.1384827920     6.2627606430     0.0000820600    -0.0003010400     0.0002529500
  8      0.8537671210     3.1050952460     6.1731305540    -0.0001244800     0.0002185500    -0.0002110900
  8      2.6515837050     3.1050952460     4.0974951090     0.0001244800     0.0002185500     0.0002110900
  8      1.5078754410     1.8776703820     1.7561909280    -0.0000182800    -0.0001667500    -0.0000131200
  8      1.9974756240     1.8776703820     8.5144342730     0.0000182800    -0.0001667500     0.0000131200
  8      4.9700818860     9.1795129380     1.7871590400    -0.0002896300    -0.0000200700     0.0003059900
  8     -1.4647308260     9.1795129380     8.4834661610     0.0002896300    -0.0000200700    -0.0003059900
  8      2.1391239650     7.1315525490     8.4708750110    -0.0002159500     0.0002562800    -0.0001968700
  8      1.3662270220     7.1315525490     1.7997506420     0.0002159500     0.0002562800     0.0001968700
  8      4.0060625770     6.7419262940     1.7885057750     0.0002870300    -0.0001916400     0.0003483000
  8     -0.5007113540     6.7419262940     8.4821194360    -0.0002870300    -0.0001916400    -0.0003483000
  8      2.3191892070     4.6769029470     1.7038143530    -0.0003098000     0.0001931100     0.0002323200
  8      1.1861616770     4.6769029470     8.5668110020     0.0003098000     0.0001931100    -0.0002323200
  8     -0.7288478830     2.5407845570     8.5698694810    -0.0001875500     0.0000568900    -0.0002300900
  8      4.2341988950     2.5407845570     1.7007560280     0.0001875500     0.0000568900     0.0002300900
  8      0.0294420440     4.6205308550     4.0927196620     0.0001558100    -0.0001367900     0.0001525100
  8      3.4759088610     4.6205308550     6.1779060010    -0.0001558100    -0.0001367900    -0.0001525100
  8      2.6336196780     9.2055809150     4.1082168700    -0.0002344600     0.0000807100     0.0001138400
  8      0.8717313610     9.2055809150     6.1624084850     0.0002344600     0.0000807100    -0.0001138400
  1      0.1496058720     4.5339408910     3.1358872120    -0.0001516600     0.0000668200    -0.0001727600
  1      3.3557451930     4.5339408910     7.1347384510     0.0001516600     0.0000668200     0.0001727600
  1      2.6152715160     0.1219961110     3.1493011740    -0.0000390700    -0.0001388400     0.0000019700
  1      0.8900796270     0.1219961110     7.1213244890     0.0000390700    -0.0001388400    -0.0000019700
 26      1.7526755190     4.5857123990     5.1353126770     0.0000000000     0.0003760200     0.0000000000
 CONVCOORD
          44           1
 19      0.0000000000     4.5099518790     0.0000000000
 19      2.6490536310     0.0753741140     0.0000000000
 12     -0.8963781120     0.0341321670     5.1353126770
 12     -0.8963781120     3.0821676480     5.1353126770
 12     -0.8963781120     6.0960317950     5.1353126770
 12      1.7526755190     7.6631585370     5.1353126770
 12      1.7526755190     1.6127738790     5.1353126770
 14      0.0305066770     1.5207525150     2.3407374270
 14      3.4748442460     1.5207525150     7.9298883800
 14      3.5791839110     7.6774164450     7.8666491440
 14     -0.0738327660     7.6774164450     2.4039760570
 14      2.5701723260     6.1268514210     2.3766959280
 14      0.9351786050     6.1268514210     7.8939291300
 13      0.8277914750     3.0642277830     7.9124111730
 13      2.6775594320     3.0642277830     2.3582140270
  8     -0.0254751850     1.5132623730     3.9739901390
  8      3.5308258510     1.5132623730     6.2966355240
  8      3.5455942310     7.6592864070     6.2472220350
  8     -0.0402432720     7.6592864070     4.0234033200
  8      2.6204060910     6.1384827920     4.0078647120
  8      0.8849449480     6.1384827920     6.2627606430
  8      0.8537671210     3.1050952460     6.1731305540
  8      2.6515837050     3.1050952460     4.0974951090
  8      1.5078754410     1.8776703820     1.7561909280
  8      1.9974756240     1.8776703820     8.5144342730
  8      4.9700818860     9.1795129380     1.7871590400
  8     -1.4647308260     9.1795129380     8.4834661610
  8      2.1391239650     7.1315525490     8.4708750110
  8      1.3662270220     7.1315525490     1.7997506420
  8      4.0060625770     6.7419262940     1.7885057750
  8     -0.5007113540     6.7419262940     8.4821194360
  8      2.3191892070     4.6769029470     1.7038143530
  8      1.1861616770     4.6769029470     8.5668110020
  8     -0.7288478830     2.5407845570     8.5698694810
  8      4.2341988950     2.5407845570     1.7007560280
  8      0.0294420440     4.6205308550     4.0927196620
  8      3.4759088610     4.6205308550     6.1779060010
  8      2.6336196780     9.2055809150     4.1082168700
  8      0.8717313610     9.2055809150     6.1624084850
  1      0.1496058720     4.5339408910     3.1358872120
  1      3.3557451930     4.5339408910     7.1347384510
  1      2.6152715160     0.1219961110     3.1493011740
  1      0.8900796270     0.1219961110     7.1213244890
 26      1.7526755190     4.5857123990     5.1353126770
 RECIP-PRIMVEC
    0.1887467264   -0.0000000000    0.0329460503

    0.0000000000    0.1086253841   -0.0000000000

    0.0000000000    0.0000000000    0.0973650636

 RECIP-CONVVEC
    0.1887467264   -0.0000000000    0.0329460503

    0.0000000000    0.1086253841   -0.0000000000

    0.0000000000    0.0000000000    0.0973650636

 WIGNER-SEITZ-PRIMCELL
           4
 -0.2649053E+01  0.4602976E+01 -0.4829380E+01  -0.3230042E+00 -0.4013797E-17 -0.9463975E+00
 -0.8562982E+00  0.4602976E+01 -0.5441245E+01  -0.3230042E+00 -0.4013797E-17 -0.9463975E+00
 -0.8562982E+00 -0.4602976E+01 -0.5441245E+01  -0.3230042E+00 -0.4013797E-17 -0.9463975E+00
 -0.2649053E+01 -0.4602976E+01 -0.4829380E+01  -0.3230042E+00 -0.4013797E-17 -0.9463975E+00
           4
 -0.2649053E+01  0.4602976E+01 -0.4829380E+01  -0.1000000E+01 -0.0000000E+00 -0.0000000E+00
 -0.2649053E+01 -0.4602976E+01 -0.4829380E+01  -0.1000000E+01 -0.0000000E+00 -0.0000000E+00
 -0.2649053E+01 -0.4602976E+01  0.4829380E+01  -0.1000000E+01 -0.0000000E+00 -0.0000000E+00
 -0.2649053E+01  0.4602976E+01  0.4829380E+01  -0.1000000E+01 -0.0000000E+00 -0.0000000E+00
           6
  0.2649053E+01 -0.4602976E+01  0.4829380E+01  -0.0000000E+00 -0.1000000E+01 -0.1095934E-14
  0.8562982E+00 -0.4602976E+01  0.5441245E+01  -0.0000000E+00 -0.1000000E+01 -0.1095934E-14
 -0.2649053E+01 -0.4602976E+01  0.4829380E+01  -0.0000000E+00 -0.1000000E+01 -0.1095934E-14
 -0.2649053E+01 -0.4602976E+01 -0.4829380E+01  -0.0000000E+00 -0.1000000E+01 -0.1095934E-14
 -0.8562982E+00 -0.4602976E+01 -0.5441245E+01  -0.0000000E+00 -0.1000000E+01 -0.1095934E-14
  0.2649053E+01 -0.4602976E+01 -0.4829380E+01  -0.0000000E+00 -0.1000000E+01 -0.1095934E-14
           4
  0.2649053E+01  0.4602976E+01 -0.4829380E+01   0.1719518E+00 -0.1084533E-15 -0.9851054E+00
  0.2649053E+01 -0.4602976E+01 -0.4829380E+01   0.1719518E+00 -0.1084533E-15 -0.9851054E+00
 -0.8562982E+00 -0.4602976E+01 -0.5441245E+01   0.1719518E+00 -0.1084533E-15 -0.9851054E+00
 -0.8562982E+00  0.4602976E+01 -0.5441245E+01   0.1719518E+00 -0.1084533E-15 -0.9851054E+00
           4
  0.8562982E+00  0.4602976E+01  0.5441245E+01  -0.1719518E+00 -0.8693135E-16  0.9851054E+00
 -0.2649053E+01  0.4602976E+01  0.4829380E+01  -0.1719518E+00 -0.8693135E-16  0.9851054E+00
 -0.2649053E+01 -0.4602976E+01  0.4829380E+01  -0.1719518E+00 -0.8693135E-16  0.9851054E+00
  0.8562982E+00 -0.4602976E+01  0.5441245E+01  -0.1719518E+00 -0.8693135E-16  0.9851054E+00
           6
  0.2649053E+01  0.4602976E+01 -0.4829380E+01   0.0000000E+00  0.1000000E+01  0.5479668E-15
 -0.8562982E+00  0.4602976E+01 -0.5441245E+01   0.0000000E+00  0.1000000E+01  0.5479668E-15
 -0.2649053E+01  0.4602976E+01 -0.4829380E+01   0.0000000E+00  0.1000000E+01  0.5479668E-15
 -0.2649053E+01  0.4602976E+01  0.4829380E+01   0.0000000E+00  0.1000000E+01  0.5479668E-15
  0.8562982E+00  0.4602976E+01  0.5441245E+01   0.0000000E+00  0.1000000E+01  0.5479668E-15
  0.2649053E+01  0.4602976E+01  0.4829380E+01   0.0000000E+00  0.1000000E+01  0.5479668E-15
           4
  0.2649053E+01  0.4602976E+01  0.4829380E+01   0.1000000E+01  0.0000000E+00  0.0000000E+00
  0.2649053E+01 -0.4602976E+01  0.4829380E+01   0.1000000E+01  0.0000000E+00  0.0000000E+00
  0.2649053E+01 -0.4602976E+01 -0.4829380E+01   0.1000000E+01  0.0000000E+00  0.0000000E+00
  0.2649053E+01  0.4602976E+01 -0.4829380E+01   0.1000000E+01  0.0000000E+00  0.0000000E+00
           4
  0.8562982E+00 -0.4602976E+01  0.5441245E+01   0.3230042E+00  0.3138316E-15  0.9463975E+00
  0.2649053E+01 -0.4602976E+01  0.4829380E+01   0.3230042E+00  0.3138316E-15  0.9463975E+00
  0.2649053E+01  0.4602976E+01  0.4829380E+01   0.3230042E+00  0.3138316E-15  0.9463975E+00
  0.8562982E+00  0.4602976E+01  0.5441245E+01   0.3230042E+00  0.3138316E-15  0.9463975E+00
 WIGNER-SEITZ-PRIMCELL_END
 WIGNER-SEITZ-CONVCELL
           4
 -0.2649053E+01  0.4602976E+01 -0.4829380E+01  -0.3230042E+00 -0.4013797E-17 -0.9463975E+00
 -0.8562982E+00  0.4602976E+01 -0.5441245E+01  -0.3230042E+00 -0.4013797E-17 -0.9463975E+00
 -0.8562982E+00 -0.4602976E+01 -0.5441245E+01  -0.3230042E+00 -0.4013797E-17 -0.9463975E+00
 -0.2649053E+01 -0.4602976E+01 -0.4829380E+01  -0.3230042E+00 -0.4013797E-17 -0.9463975E+00
           4
 -0.2649053E+01  0.4602976E+01 -0.4829380E+01  -0.1000000E+01 -0.0000000E+00 -0.0000000E+00
 -0.2649053E+01 -0.4602976E+01 -0.4829380E+01  -0.1000000E+01 -0.0000000E+00 -0.0000000E+00
 -0.2649053E+01 -0.4602976E+01  0.4829380E+01  -0.1000000E+01 -0.0000000E+00 -0.0000000E+00
 -0.2649053E+01  0.4602976E+01  0.4829380E+01  -0.1000000E+01 -0.0000000E+00 -0.0000000E+00
           6
  0.2649053E+01 -0.4602976E+01  0.4829380E+01  -0.0000000E+00 -0.1000000E+01 -0.1095934E-14
  0.8562982E+00 -0.4602976E+01  0.5441245E+01  -0.0000000E+00 -0.1000000E+01 -0.1095934E-14
 -0.2649053E+01 -0.4602976E+01  0.4829380E+01  -0.0000000E+00 -0.1000000E+01 -0.1095934E-14
 -0.2649053E+01 -0.4602976E+01 -0.4829380E+01  -0.0000000E+00 -0.1000000E+01 -0.1095934E-14
 -0.8562982E+00 -0.4602976E+01 -0.5441245E+01  -0.0000000E+00 -0.1000000E+01 -0.1095934E-14
  0.2649053E+01 -0.4602976E+01 -0.4829380E+01  -0.0000000E+00 -0.1000000E+01 -0.1095934E-14
           4
  0.2649053E+01  0.4602976E+01 -0.4829380E+01   0.1719518E+00 -0.1084533E-15 -0.9851054E+00
  0.2649053E+01 -0.4602976E+01 -0.4829380E+01   0.1719518E+00 -0.1084533E-15 -0.9851054E+00
 -0.8562982E+00 -0.4602976E+01 -0.5441245E+01   0.1719518E+00 -0.1084533E-15 -0.9851054E+00
 -0.8562982E+00  0.4602976E+01 -0.5441245E+01   0.1719518E+00 -0.1084533E-15 -0.9851054E+00
           4
  0.8562982E+00  0.4602976E+01  0.5441245E+01  -0.1719518E+00 -0.8693135E-16  0.9851054E+00
 -0.2649053E+01  0.4602976E+01  0.4829380E+01  -0.1719518E+00 -0.8693135E-16  0.9851054E+00
 -0.2649053E+01 -0.4602976E+01  0.4829380E+01  -0.1719518E+00 -0.8693135E-16  0.9851054E+00
  0.8562982E+00 -0.4602976E+01  0.5441245E+01  -0.1719518E+00 -0.8693135E-16  0.9851054E+00
           6
  0.2649053E+01  0.4602976E+01 -0.4829380E+01   0.0000000E+00  0.1000000E+01  0.5479668E-15
 -0.8562982E+00  0.4602976E+01 -0.5441245E+01   0.0000000E+00  0.1000000E+01  0.5479668E-15
 -0.2649053E+01  0.4602976E+01 -0.4829380E+01   0.0000000E+00  0.1000000E+01  0.5479668E-15
 -0.2649053E+01  0.4602976E+01  0.4829380E+01   0.0000000E+00  0.1000000E+01  0.5479668E-15
  0.8562982E+00  0.4602976E+01  0.5441245E+01   0.0000000E+00  0.1000000E+01  0.5479668E-15
  0.2649053E+01  0.4602976E+01  0.4829380E+01   0.0000000E+00  0.1000000E+01  0.5479668E-15
           4
  0.2649053E+01  0.4602976E+01  0.4829380E+01   0.1000000E+01  0.0000000E+00  0.0000000E+00
  0.2649053E+01 -0.4602976E+01  0.4829380E+01   0.1000000E+01  0.0000000E+00  0.0000000E+00
  0.2649053E+01 -0.4602976E+01 -0.4829380E+01   0.1000000E+01  0.0000000E+00  0.0000000E+00
  0.2649053E+01  0.4602976E+01 -0.4829380E+01   0.1000000E+01  0.0000000E+00  0.0000000E+00
           4
  0.8562982E+00 -0.4602976E+01  0.5441245E+01   0.3230042E+00  0.3138316E-15  0.9463975E+00
  0.2649053E+01 -0.4602976E+01  0.4829380E+01   0.3230042E+00  0.3138316E-15  0.9463975E+00
  0.2649053E+01  0.4602976E+01  0.4829380E+01   0.3230042E+00  0.3138316E-15  0.9463975E+00
  0.8562982E+00  0.4602976E+01  0.5441245E+01   0.3230042E+00  0.3138316E-15  0.9463975E+00
 WIGNER-SEITZ-CONVCELL_END
 BRILLOUIN-ZONE-PRIMCELL
           4
  0.9999559E-01  0.5431269E-01 -0.1573648E-01   0.9463975E+00 -0.5734284E-16 -0.3230042E+00
  0.9999559E-01 -0.5431269E-01 -0.1573648E-01   0.9463975E+00 -0.5734284E-16 -0.3230042E+00
  0.8875114E-01 -0.5431269E-01 -0.4868253E-01   0.9463975E+00 -0.5734284E-16 -0.3230042E+00
  0.8875114E-01  0.5431269E-01 -0.4868253E-01   0.9463975E+00 -0.5734284E-16 -0.3230042E+00
           4
 -0.8875114E-01 -0.5431269E-01 -0.4868253E-01  -0.4498472E-16 -0.1799389E-15 -0.1000000E+01
 -0.8875114E-01  0.5431269E-01 -0.4868253E-01  -0.4498472E-16 -0.1799389E-15 -0.1000000E+01
  0.8875114E-01  0.5431269E-01 -0.4868253E-01  -0.4498472E-16 -0.1799389E-15 -0.1000000E+01
  0.8875114E-01 -0.5431269E-01 -0.4868253E-01  -0.4498472E-16 -0.1799389E-15 -0.1000000E+01
           6
  0.8875114E-01 -0.5431269E-01  0.4868253E-01  -0.0000000E+00 -0.1000000E+01  0.0000000E+00
 -0.8875114E-01 -0.5431269E-01  0.4868253E-01  -0.0000000E+00 -0.1000000E+01  0.0000000E+00
 -0.9999559E-01 -0.5431269E-01  0.1573648E-01  -0.0000000E+00 -0.1000000E+01  0.0000000E+00
 -0.8875114E-01 -0.5431269E-01 -0.4868253E-01  -0.0000000E+00 -0.1000000E+01  0.0000000E+00
  0.8875114E-01 -0.5431269E-01 -0.4868253E-01  -0.0000000E+00 -0.1000000E+01  0.0000000E+00
  0.9999559E-01 -0.5431269E-01 -0.1573648E-01  -0.0000000E+00 -0.1000000E+01  0.0000000E+00
           4
  0.8875114E-01 -0.5431269E-01  0.4868253E-01   0.9851054E+00 -0.1144745E-16  0.1719518E+00
  0.9999559E-01 -0.5431269E-01 -0.1573648E-01   0.9851054E+00 -0.1144745E-16  0.1719518E+00
  0.9999559E-01  0.5431269E-01 -0.1573648E-01   0.9851054E+00 -0.1144745E-16  0.1719518E+00
  0.8875114E-01  0.5431269E-01  0.4868253E-01   0.9851054E+00 -0.1144745E-16  0.1719518E+00
           4
 -0.8875114E-01  0.5431269E-01 -0.4868253E-01  -0.9851054E+00  0.1526327E-16 -0.1719518E+00
 -0.8875114E-01 -0.5431269E-01 -0.4868253E-01  -0.9851054E+00  0.1526327E-16 -0.1719518E+00
 -0.9999559E-01 -0.5431269E-01  0.1573648E-01  -0.9851054E+00  0.1526327E-16 -0.1719518E+00
 -0.9999559E-01  0.5431269E-01  0.1573648E-01  -0.9851054E+00  0.1526327E-16 -0.1719518E+00
           6
  0.9999559E-01  0.5431269E-01 -0.1573648E-01  -0.0000000E+00  0.1000000E+01  0.5932708E-15
  0.8875114E-01  0.5431269E-01 -0.4868253E-01  -0.0000000E+00  0.1000000E+01  0.5932708E-15
 -0.8875114E-01  0.5431269E-01 -0.4868253E-01  -0.0000000E+00  0.1000000E+01  0.5932708E-15
 -0.9999559E-01  0.5431269E-01  0.1573648E-01  -0.0000000E+00  0.1000000E+01  0.5932708E-15
 -0.8875114E-01  0.5431269E-01  0.4868253E-01  -0.0000000E+00  0.1000000E+01  0.5932708E-15
  0.8875114E-01  0.5431269E-01  0.4868253E-01  -0.0000000E+00  0.1000000E+01  0.5932708E-15
           4
  0.8875114E-01 -0.5431269E-01  0.4868253E-01  -0.0000000E+00  0.1799389E-15  0.1000000E+01
  0.8875114E-01  0.5431269E-01  0.4868253E-01  -0.0000000E+00  0.1799389E-15  0.1000000E+01
 -0.8875114E-01  0.5431269E-01  0.4868253E-01  -0.0000000E+00  0.1799389E-15  0.1000000E+01
 -0.8875114E-01 -0.5431269E-01  0.4868253E-01  -0.0000000E+00  0.1799389E-15  0.1000000E+01
           4
 -0.8875114E-01  0.5431269E-01  0.4868253E-01  -0.9463975E+00 -0.1566242E-15  0.3230042E+00
 -0.9999559E-01  0.5431269E-01  0.1573648E-01  -0.9463975E+00 -0.1566242E-15  0.3230042E+00
 -0.9999559E-01 -0.5431269E-01  0.1573648E-01  -0.9463975E+00 -0.1566242E-15  0.3230042E+00
 -0.8875114E-01 -0.5431269E-01  0.4868253E-01  -0.9463975E+00 -0.1566242E-15  0.3230042E+00
 BRILLOUIN-ZONE-PRIMCELL_END
 BRILLOUIN-ZONE-CONVCELL
           4
  0.9999559E-01  0.5431269E-01 -0.1573648E-01   0.9463975E+00 -0.5734284E-16 -0.3230042E+00
  0.9999559E-01 -0.5431269E-01 -0.1573648E-01   0.9463975E+00 -0.5734284E-16 -0.3230042E+00
  0.8875114E-01 -0.5431269E-01 -0.4868253E-01   0.9463975E+00 -0.5734284E-16 -0.3230042E+00
  0.8875114E-01  0.5431269E-01 -0.4868253E-01   0.9463975E+00 -0.5734284E-16 -0.3230042E+00
           4
 -0.8875114E-01 -0.5431269E-01 -0.4868253E-01  -0.4498472E-16 -0.1799389E-15 -0.1000000E+01
 -0.8875114E-01  0.5431269E-01 -0.4868253E-01  -0.4498472E-16 -0.1799389E-15 -0.1000000E+01
  0.8875114E-01  0.5431269E-01 -0.4868253E-01  -0.4498472E-16 -0.1799389E-15 -0.1000000E+01
  0.8875114E-01 -0.5431269E-01 -0.4868253E-01  -0.4498472E-16 -0.1799389E-15 -0.1000000E+01
           6
  0.8875114E-01 -0.5431269E-01  0.4868253E-01  -0.0000000E+00 -0.1000000E+01  0.0000000E+00
 -0.8875114E-01 -0.5431269E-01  0.4868253E-01  -0.0000000E+00 -0.1000000E+01  0.0000000E+00
 -0.9999559E-01 -0.5431269E-01  0.1573648E-01  -0.0000000E+00 -0.1000000E+01  0.0000000E+00
 -0.8875114E-01 -0.5431269E-01 -0.4868253E-01  -0.0000000E+00 -0.1000000E+01  0.0000000E+00
  0.8875114E-01 -0.5431269E-01 -0.4868253E-01  -0.0000000E+00 -0.1000000E+01  0.0000000E+00
  0.9999559E-01 -0.5431269E-01 -0.1573648E-01  -0.0000000E+00 -0.1000000E+01  0.0000000E+00
           4
  0.8875114E-01 -0.5431269E-01  0.4868253E-01   0.9851054E+00 -0.1144745E-16  0.1719518E+00
  0.9999559E-01 -0.5431269E-01 -0.1573648E-01   0.9851054E+00 -0.1144745E-16  0.1719518E+00
  0.9999559E-01  0.5431269E-01 -0.1573648E-01   0.9851054E+00 -0.1144745E-16  0.1719518E+00
  0.8875114E-01  0.5431269E-01  0.4868253E-01   0.9851054E+00 -0.1144745E-16  0.1719518E+00
           4
 -0.8875114E-01  0.5431269E-01 -0.4868253E-01  -0.9851054E+00  0.1526327E-16 -0.1719518E+00
 -0.8875114E-01 -0.5431269E-01 -0.4868253E-01  -0.9851054E+00  0.1526327E-16 -0.1719518E+00
 -0.9999559E-01 -0.5431269E-01  0.1573648E-01  -0.9851054E+00  0.1526327E-16 -0.1719518E+00
 -0.9999559E-01  0.5431269E-01  0.1573648E-01  -0.9851054E+00  0.1526327E-16 -0.1719518E+00
           6
  0.9999559E-01  0.5431269E-01 -0.1573648E-01  -0.0000000E+00  0.1000000E+01  0.5932708E-15
  0.8875114E-01  0.5431269E-01 -0.4868253E-01  -0.0000000E+00  0.1000000E+01  0.5932708E-15
 -0.8875114E-01  0.5431269E-01 -0.4868253E-01  -0.0000000E+00  0.1000000E+01  0.5932708E-15
 -0.9999559E-01  0.5431269E-01  0.1573648E-01  -0.0000000E+00  0.1000000E+01  0.5932708E-15
 -0.8875114E-01  0.5431269E-01  0.4868253E-01  -0.0000000E+00  0.1000000E+01  0.5932708E-15
  0.8875114E-01  0.5431269E-01  0.4868253E-01  -0.0000000E+00  0.1000000E+01  0.5932708E-15
           4
  0.8875114E-01 -0.5431269E-01  0.4868253E-01  -0.0000000E+00  0.1799389E-15  0.1000000E+01
  0.8875114E-01  0.5431269E-01  0.4868253E-01  -0.0000000E+00  0.1799389E-15  0.1000000E+01
 -0.8875114E-01  0.5431269E-01  0.4868253E-01  -0.0000000E+00  0.1799389E-15  0.1000000E+01
 -0.8875114E-01 -0.5431269E-01  0.4868253E-01  -0.0000000E+00  0.1799389E-15  0.1000000E+01
           4
 -0.8875114E-01  0.5431269E-01  0.4868253E-01  -0.9463975E+00 -0.1566242E-15  0.3230042E+00
 -0.9999559E-01  0.5431269E-01  0.1573648E-01  -0.9463975E+00 -0.1566242E-15  0.3230042E+00
 -0.9999559E-01 -0.5431269E-01  0.1573648E-01  -0.9463975E+00 -0.1566242E-15  0.3230042E+00
 -0.8875114E-01 -0.5431269E-01  0.4868253E-01  -0.9463975E+00 -0.1566242E-15  0.3230042E+00
 BRILLOUIN-ZONE-CONVCELL_END
 ATOMS
   19    0.0000000000    4.5099518790    0.0000000000    0.0000000000   -0.0005188300    0.0000000000
   19    2.6490536310    0.0753741140    0.0000000000    0.0000000000    0.0004916300    0.0000000000
   12   -0.8963781120    0.0341321670    5.1353126770    0.0000000000    0.0000955300    0.0000000000
   12   -0.8963781120    3.0821676480    5.1353126770    0.0000000000   -0.0000252800    0.0000000000
   12   -0.8963781120    6.0960317950    5.1353126770    0.0000000000   -0.0000941900    0.0000000000
   12    1.7526755190    7.6631585370    5.1353126770    0.0000000000   -0.0000011400    0.0000000000
   12    1.7526755190    1.6127738790    5.1353126770    0.0000000000   -0.0002740400    0.0000000000
   14    0.0305066770    1.5207525150    2.3407374270   -0.0001307500   -0.0002489600   -0.0002431100
   14    3.4748442460    1.5207525150    7.9298883800    0.0001307500   -0.0002489600    0.0002431100
   14    3.5791839110    7.6774164450    7.8666491440    0.0000044000    0.0000662500    0.0004288700
   14   -0.0738327660    7.6774164450    2.4039760570   -0.0000044000    0.0000662500   -0.0004288700
   14    2.5701723260    6.1268514210    2.3766959280   -0.0000517600    0.0001150600   -0.0005098400
   14    0.9351786050    6.1268514210    7.8939291300    0.0000517600    0.0001150600    0.0005098400
   13    0.8277914750    3.0642277830    7.9124111730    0.0001672300   -0.0000141500    0.0000740100
   13    2.6775594320    3.0642277830    2.3582140270   -0.0001672300   -0.0000141500   -0.0000740100
    8   -0.0254751850    1.5132623730    3.9739901390    0.0000097200    0.0001367500   -0.0001690800
    8    3.5308258510    1.5132623730    6.2966355240   -0.0000097200    0.0001367500    0.0001690800
    8    3.5455942310    7.6592864070    6.2472220350    0.0001267600    0.0000029700    0.0003936900
    8   -0.0402432720    7.6592864070    4.0234033200   -0.0001267600    0.0000029700   -0.0003936900
    8    2.6204060910    6.1384827920    4.0078647120   -0.0000820600   -0.0003010400   -0.0002529500
    8    0.8849449480    6.1384827920    6.2627606430    0.0000820600   -0.0003010400    0.0002529500
    8    0.8537671210    3.1050952460    6.1731305540   -0.0001244800    0.0002185500   -0.0002110900
    8    2.6515837050    3.1050952460    4.0974951090    0.0001244800    0.0002185500    0.0002110900
    8    1.5078754410    1.8776703820    1.7561909280   -0.0000182800   -0.0001667500   -0.0000131200
    8    1.9974756240    1.8776703820    8.5144342730    0.0000182800   -0.0001667500    0.0000131200
    8    4.9700818860    9.1795129380    1.7871590400   -0.0002896300   -0.0000200700    0.0003059900
    8   -1.4647308260    9.1795129380    8.4834661610    0.0002896300   -0.0000200700   -0.0003059900
    8    2.1391239650    7.1315525490    8.4708750110   -0.0002159500    0.0002562800   -0.0001968700
    8    1.3662270220    7.1315525490    1.7997506420    0.0002159500    0.0002562800    0.0001968700
    8    4.0060625770    6.7419262940    1.7885057750    0.0002870300   -0.0001916400    0.0003483000
    8   -0.5007113540    6.7419262940    8.4821194360   -0.0002870300   -0.0001916400   -0.0003483000
    8    2.3191892070    4.6769029470    1.7038143530   -0.0003098000    0.0001931100    0.0002323200
    8    1.1861616770    4.6769029470    8.5668110020    0.0003098000    0.0001931100   -0.0002323200
    8   -0.7288478830    2.5407845570    8.5698694810   -0.0001875500    0.0000568900   -0.0002300900
    8    4.2341988950    2.5407845570    1.7007560280    0.0001875500    0.0000568900    0.0002300900
    8    0.0294420440    4.6205308550    4.0927196620    0.0001558100   -0.0001367900    0.0001525100
    8    3.4759088610    4.6205308550    6.1779060010   -0.0001558100   -0.0001367900   -0.0001525100
    8    2.6336196780    9.2055809150    4.1082168700   -0.0002344600    0.0000807100    0.0001138400
    8    0.8717313610    9.2055809150    6.1624084850    0.0002344600    0.0000807100   -0.0001138400
    1    0.1496058720    4.5339408910    3.1358872120   -0.0001516600    0.0000668200   -0.0001727600
    1    3.3557451930    4.5339408910    7.1347384510    0.0001516600    0.0000668200    0.0001727600
    1    2.6152715160    0.1219961110    3.1493011740   -0.0000390700   -0.0001388400    0.0000019700
    1    0.8900796270    0.1219961110    7.1213244890    0.0000390700   -0.0001388400   -0.0000019700
   26    1.7526755190    4.5857123990    5.1353126770    0.0000000000    0.0003760200    0.0000000000
   19   -1.7927543180    4.5099518790   10.2706244170    0.0000000000   -0.0005188300    0.0000000000
   19    0.8562993130    0.0753741140   10.2706244170    0.0000000000    0.0004916300    0.0000000000
   19    5.2981051320    4.5099518790    0.0000000000    0.0000000000   -0.0005188300    0.0000000000
   12    4.4017270200    0.0341321670    5.1353126770    0.0000000000    0.0000955300    0.0000000000
   12    4.4017270200    3.0821676480    5.1353126770    0.0000000000   -0.0000252800    0.0000000000
   12    4.4017270200    6.0960317950    5.1353126770    0.0000000000   -0.0000941900    0.0000000000
   19    3.5053508140    4.5099518790   10.2706244170    0.0000000000   -0.0005188300    0.0000000000
 FRAMES
1      0.0000000000    0.0000000000    0.0000000000      5.2981051320    0.0000000000    0.0000000000
1      0.0000000000    0.0000000000    0.0000000000      0.0000000000    9.2059513330    0.0000000000
1      0.0000000000    0.0000000000    0.0000000000     -1.7927543180    0.0000000000   10.2706244170
1     -1.7927543180    0.0000000000   10.2706244170      3.5053508140    0.0000000000   10.2706244170
1     -1.7927543180    0.0000000000   10.2706244170     -1.7927543180    9.2059513330   10.2706244170
1      0.0000000000    9.2059513330    0.0000000000      5.2981051320    9.2059513330    0.0000000000
1      0.0000000000    9.2059513330    0.0000000000     -1.7927543180    9.2059513330   10.2706244170
1     -1.7927543180    9.2059513330   10.2706244170      3.5053508140    9.2059513330   10.2706244170
1      5.2981051320    0.0000000000    0.0000000000      5.2981051320    9.2059513330    0.0000000000
1      5.2981051320    0.0000000000    0.0000000000      3.5053508140    0.0000000000   10.2706244170
1      3.5053508140    0.0000000000   10.2706244170      3.5053508140    9.2059513330   10.2706244170
1      5.2981051320    9.2059513330    0.0000000000      3.5053508140    9.2059513330   10.2706244170
