 INFO
nunit      1    1    1
unit   cell
celltype   primcell
shape   parapipedal
 END_INFO
 DIM-GROUP
           3           1
 PRIMVEC
    5.3009597160    0.0000000000    0.0000000000
    0.0000000000    9.2086141920    0.0000000000
   -1.7739847060    0.0000000000   10.2662732760
 CONVVEC
    5.3009597160    0.0000000000    0.0000000000
    0.0000000000    9.2086141920    0.0000000000
   -1.7739847060    0.0000000000   10.2662732760
 PRIMCOORD
          44           1
 19      0.0000000000     4.5164745930     0.0000000000     0.0000000000    -0.0007556300     0.0000000000
 19      2.6504805320     0.0688459620     0.0000000000     0.0000000000     0.0008153400     0.0000000000
 12     -0.8869923670     0.0327743170     5.1331359820     0.0000000000     0.0008011800     0.0000000000
 12     -0.8869923670     3.0815680120     5.1331359820     0.0000000000     0.0004723200     0.0000000000
 12     -0.8869923670     6.0985128030     5.1331359820     0.0000000000    -0.0002944800     0.0000000000
 12      1.7634881650     7.6656769520     5.1331359820     0.0000000000    -0.0002066000     0.0000000000
 12      1.7634881650     1.6124770420     5.1331359820     0.0000000000     0.0005191000     0.0000000000
 26      1.7634881650     4.5878130490     5.1331359820     0.0000000000    -0.0000456500     0.0000000000
 14      0.0394422460     1.5213021500     2.3377617250    -0.0000434300     0.0000324000     0.0003945300
 14      3.4875338080     1.5213021500     7.9285107000     0.0000434300     0.0000324000    -0.0003945300
 14      3.5899736380     7.6790650180     7.8647895050     0.0001594000     0.0005046100    -0.0003658100
 14     -0.0629972710     7.6790650180     2.4014824590    -0.0001594000     0.0005046100     0.0003658100
 14      2.5826391680     6.1285388950     2.3744814440    -0.0002120300    -0.0002097200     0.0000435600
 14      0.9443371350     6.1285388950     7.8917906730     0.0002120300    -0.0002097200    -0.0000435600
 13      0.8388983330     3.0652467190     7.9110560430     0.0000235900    -0.0000745600    -0.0005858100
 13      2.6880778130     3.0652467190     2.3552160640    -0.0000235900    -0.0000745600     0.0005858100
  8     -0.0163004300     1.5141796530     3.9708626410     0.0000554800    -0.0001680200     0.0006337600
  8      3.5432765270     1.5141796530     6.2954093230    -0.0000554800    -0.0001680200    -0.0006337600
  8      3.5565901720     7.6623135010     6.2457188170     0.0002208300    -0.0003601700    -0.0005136100
  8     -0.0296139210     7.6623135010     4.0205531460    -0.0002208300    -0.0003601700     0.0005136100
  8      2.6332279650     6.1412513120     4.0051573730    -0.0003960000    -0.0004828300     0.0006166800
  8      0.8937484180     6.1412513120     6.2611142830     0.0003960000    -0.0004828300    -0.0006166800
  8      0.8639120290     3.1064591100     6.1715664510     0.0001911800     0.0001419700    -0.0007497500
  8      2.6630640890     3.1064591100     4.0947058210    -0.0001911800     0.0001419700     0.0007497500
  8      1.5166043610     1.8805074290     1.7547654840     0.0000986800    -0.0003526700    -0.0006115500
  8      2.0103719930     1.8805074290     8.5115063360    -0.0000986800    -0.0003526700     0.0006115500
  8      4.9862522990     9.1814981600     1.7857537250    -0.0006332300     0.0001966300    -0.0006088700
  8     -1.4592761710     9.1814981600     8.4805187010     0.0006332300     0.0001966300     0.0006088700
  8      2.1503689370     7.1310339880     8.4668607580    -0.0000822800     0.0005106600     0.0007652400
  8      1.3766073930     7.1310339880     1.7994112050     0.0000822800     0.0005106600    -0.0007652400
  8      4.0174357390     6.7462650410     1.7874495800     0.0004704500    -0.0003867000    -0.0004994600
  8     -0.4904595420     6.7462650410     8.4788226910    -0.0004704500    -0.0003867000     0.0004994600
  8      2.3330961630     4.6785721210     1.7015172430    -0.0004002400     0.0004410100    -0.0000733500
  8      1.1938801140     4.6785721210     8.5647550290     0.0004002400     0.0004410100     0.0000733500
  8     -0.7174626190     2.5404082420     8.5670783210    -0.0004598000    -0.0002942900     0.0002745100
  8      4.2444390020     2.5404082420     1.6991933350     0.0004598000    -0.0002942900    -0.0002745100
  8      0.0389904810     4.6223086450     4.0909705240     0.0006583400    -0.0003002800    -0.0004160100
  8      3.4879858490     4.6223086450     6.1753014400    -0.0006583400    -0.0003002800     0.0004160100
  8      2.6454317060     9.2083713740     4.1068016920    -0.0003047600     0.0001315900    -0.0004360500
  8      0.8815444650     9.2083713740     6.1594702710     0.0003047600     0.0001315900     0.0004360500
  1      0.1635396820     4.5330668650     3.1346009360    -0.0005192800     0.0002200400     0.0005070800
  1      3.3634364350     4.5330668650     7.1316713360     0.0005192800     0.0002200400    -0.0005070800
  1      2.6272792680     0.1227756450     3.1477188350    -0.0000446200    -0.0002024700     0.0005114100
  1      0.8996971690     0.1227756450     7.1185525120     0.0000446200    -0.0002024700    -0.0005114100
 CONVCOORD
          44           1
 19      0.0000000000     4.5164745930     0.0000000000
 19      2.6504805320     0.0688459620     0.0000000000
 12     -0.8869923670     0.0327743170     5.1331359820
 12     -0.8869923670     3.0815680120     5.1331359820
 12     -0.8869923670     6.0985128030     5.1331359820
 12      1.7634881650     7.6656769520     5.1331359820
 12      1.7634881650     1.6124770420     5.1331359820
 26      1.7634881650     4.5878130490     5.1331359820
 14      0.0394422460     1.5213021500     2.3377617250
 14      3.4875338080     1.5213021500     7.9285107000
 14      3.5899736380     7.6790650180     7.8647895050
 14     -0.0629972710     7.6790650180     2.4014824590
 14      2.5826391680     6.1285388950     2.3744814440
 14      0.9443371350     6.1285388950     7.8917906730
 13      0.8388983330     3.0652467190     7.9110560430
 13      2.6880778130     3.0652467190     2.3552160640
  8     -0.0163004300     1.5141796530     3.9708626410
  8      3.5432765270     1.5141796530     6.2954093230
  8      3.5565901720     7.6623135010     6.2457188170
  8     -0.0296139210     7.6623135010     4.0205531460
  8      2.6332279650     6.1412513120     4.0051573730
  8      0.8937484180     6.1412513120     6.2611142830
  8      0.8639120290     3.1064591100     6.1715664510
  8      2.6630640890     3.1064591100     4.0947058210
  8      1.5166043610     1.8805074290     1.7547654840
  8      2.0103719930     1.8805074290     8.5115063360
  8      4.9862522990     9.1814981600     1.7857537250
  8     -1.4592761710     9.1814981600     8.4805187010
  8      2.1503689370     7.1310339880     8.4668607580
  8      1.3766073930     7.1310339880     1.7994112050
  8      4.0174357390     6.7462650410     1.7874495800
  8     -0.4904595420     6.7462650410     8.4788226910
  8      2.3330961630     4.6785721210     1.7015172430
  8      1.1938801140     4.6785721210     8.5647550290
  8     -0.7174626190     2.5404082420     8.5670783210
  8      4.2444390020     2.5404082420     1.6991933350
  8      0.0389904810     4.6223086450     4.0909705240
  8      3.4879858490     4.6223086450     6.1753014400
  8      2.6454317060     9.2083713740     4.1068016920
  8      0.8815444650     9.2083713740     6.1594702710
  1      0.1635396820     4.5330668650     3.1346009360
  1      3.3634364350     4.5330668650     7.1316713360
  1      2.6272792680     0.1227756450     3.1477188350
  1      0.8996971690     0.1227756450     7.1185525120
 RECIP-PRIMVEC
    0.1886450857   -0.0000000000    0.0325973689

    0.0000000000    0.1085939729   -0.0000000000

    0.0000000000    0.0000000000    0.0974063297

 RECIP-CONVVEC
    0.1886450857   -0.0000000000    0.0325973689

    0.0000000000    0.1085939729   -0.0000000000

    0.0000000000    0.0000000000    0.0974063297

 WIGNER-SEITZ-PRIMCELL
           4
 -0.2650480E+01  0.4604307E+01 -0.4828411E+01  -0.3249103E+00  0.0000000E+00 -0.9457448E+00
 -0.8764952E+00  0.4604307E+01 -0.5437863E+01  -0.3249103E+00  0.0000000E+00 -0.9457448E+00
 -0.8764952E+00 -0.4604307E+01 -0.5437863E+01  -0.3249103E+00  0.0000000E+00 -0.9457448E+00
 -0.2650480E+01 -0.4604307E+01 -0.4828411E+01  -0.3249103E+00  0.0000000E+00 -0.9457448E+00
           4
 -0.2650480E+01  0.4604307E+01  0.4828411E+01  -0.1000000E+01 -0.0000000E+00 -0.0000000E+00
 -0.2650480E+01  0.4604307E+01 -0.4828411E+01  -0.1000000E+01 -0.0000000E+00 -0.0000000E+00
 -0.2650480E+01 -0.4604307E+01 -0.4828411E+01  -0.1000000E+01 -0.0000000E+00 -0.0000000E+00
 -0.2650480E+01 -0.4604307E+01  0.4828411E+01  -0.1000000E+01 -0.0000000E+00 -0.0000000E+00
           6
  0.2650480E+01 -0.4604307E+01  0.4828411E+01   0.0000000E+00 -0.1000000E+01 -0.1099680E-14
  0.8764952E+00 -0.4604307E+01  0.5437863E+01   0.0000000E+00 -0.1000000E+01 -0.1099680E-14
 -0.2650480E+01 -0.4604307E+01  0.4828411E+01   0.0000000E+00 -0.1000000E+01 -0.1099680E-14
 -0.2650480E+01 -0.4604307E+01 -0.4828411E+01   0.0000000E+00 -0.1000000E+01 -0.1099680E-14
 -0.8764952E+00 -0.4604307E+01 -0.5437863E+01   0.0000000E+00 -0.1000000E+01 -0.1099680E-14
  0.2650480E+01 -0.4604307E+01 -0.4828411E+01   0.0000000E+00 -0.1000000E+01 -0.1099680E-14
           4
  0.2650480E+01  0.4604307E+01 -0.4828411E+01   0.1702739E+00 -0.1077891E-15 -0.9853968E+00
  0.2650480E+01 -0.4604307E+01 -0.4828411E+01   0.1702739E+00 -0.1077891E-15 -0.9853968E+00
 -0.8764952E+00 -0.4604307E+01 -0.5437863E+01   0.1702739E+00 -0.1077891E-15 -0.9853968E+00
 -0.8764952E+00  0.4604307E+01 -0.5437863E+01   0.1702739E+00 -0.1077891E-15 -0.9853968E+00
           4
  0.8764952E+00  0.4604307E+01  0.5437863E+01  -0.1702739E+00 -0.1465355E-15  0.9853968E+00
 -0.2650480E+01  0.4604307E+01  0.4828411E+01  -0.1702739E+00 -0.1465355E-15  0.9853968E+00
 -0.2650480E+01 -0.4604307E+01  0.4828411E+01  -0.1702739E+00 -0.1465355E-15  0.9853968E+00
  0.8764952E+00 -0.4604307E+01  0.5437863E+01  -0.1702739E+00 -0.1465355E-15  0.9853968E+00
           6
  0.2650480E+01  0.4604307E+01 -0.4828411E+01   0.1675505E-15  0.1000000E+01 -0.0000000E+00
 -0.8764952E+00  0.4604307E+01 -0.5437863E+01   0.1675505E-15  0.1000000E+01 -0.0000000E+00
 -0.2650480E+01  0.4604307E+01 -0.4828411E+01   0.1675505E-15  0.1000000E+01 -0.0000000E+00
 -0.2650480E+01  0.4604307E+01  0.4828411E+01   0.1675505E-15  0.1000000E+01 -0.0000000E+00
  0.8764952E+00  0.4604307E+01  0.5437863E+01   0.1675505E-15  0.1000000E+01 -0.0000000E+00
  0.2650480E+01  0.4604307E+01  0.4828411E+01   0.1675505E-15  0.1000000E+01 -0.0000000E+00
           4
  0.2650480E+01  0.4604307E+01  0.4828411E+01   0.1000000E+01  0.0000000E+00  0.0000000E+00
  0.2650480E+01 -0.4604307E+01  0.4828411E+01   0.1000000E+01  0.0000000E+00  0.0000000E+00
  0.2650480E+01 -0.4604307E+01 -0.4828411E+01   0.1000000E+01  0.0000000E+00  0.0000000E+00
  0.2650480E+01  0.4604307E+01 -0.4828411E+01   0.1000000E+01  0.0000000E+00  0.0000000E+00
           4
  0.2650480E+01 -0.4604307E+01  0.4828411E+01   0.3249103E+00  0.1028395E-15  0.9457448E+00
  0.2650480E+01  0.4604307E+01  0.4828411E+01   0.3249103E+00  0.1028395E-15  0.9457448E+00
  0.8764952E+00  0.4604307E+01  0.5437863E+01   0.3249103E+00  0.1028395E-15  0.9457448E+00
  0.8764952E+00 -0.4604307E+01  0.5437863E+01   0.3249103E+00  0.1028395E-15  0.9457448E+00
 WIGNER-SEITZ-PRIMCELL_END
 WIGNER-SEITZ-CONVCELL
           4
 -0.2650480E+01  0.4604307E+01 -0.4828411E+01  -0.3249103E+00  0.0000000E+00 -0.9457448E+00
 -0.8764952E+00  0.4604307E+01 -0.5437863E+01  -0.3249103E+00  0.0000000E+00 -0.9457448E+00
 -0.8764952E+00 -0.4604307E+01 -0.5437863E+01  -0.3249103E+00  0.0000000E+00 -0.9457448E+00
 -0.2650480E+01 -0.4604307E+01 -0.4828411E+01  -0.3249103E+00  0.0000000E+00 -0.9457448E+00
           4
 -0.2650480E+01  0.4604307E+01  0.4828411E+01  -0.1000000E+01 -0.0000000E+00 -0.0000000E+00
 -0.2650480E+01  0.4604307E+01 -0.4828411E+01  -0.1000000E+01 -0.0000000E+00 -0.0000000E+00
 -0.2650480E+01 -0.4604307E+01 -0.4828411E+01  -0.1000000E+01 -0.0000000E+00 -0.0000000E+00
 -0.2650480E+01 -0.4604307E+01  0.4828411E+01  -0.1000000E+01 -0.0000000E+00 -0.0000000E+00
           6
  0.2650480E+01 -0.4604307E+01  0.4828411E+01   0.0000000E+00 -0.1000000E+01 -0.1099680E-14
  0.8764952E+00 -0.4604307E+01  0.5437863E+01   0.0000000E+00 -0.1000000E+01 -0.1099680E-14
 -0.2650480E+01 -0.4604307E+01  0.4828411E+01   0.0000000E+00 -0.1000000E+01 -0.1099680E-14
 -0.2650480E+01 -0.4604307E+01 -0.4828411E+01   0.0000000E+00 -0.1000000E+01 -0.1099680E-14
 -0.8764952E+00 -0.4604307E+01 -0.5437863E+01   0.0000000E+00 -0.1000000E+01 -0.1099680E-14
  0.2650480E+01 -0.4604307E+01 -0.4828411E+01   0.0000000E+00 -0.1000000E+01 -0.1099680E-14
           4
  0.2650480E+01  0.4604307E+01 -0.4828411E+01   0.1702739E+00 -0.1077891E-15 -0.9853968E+00
  0.2650480E+01 -0.4604307E+01 -0.4828411E+01   0.1702739E+00 -0.1077891E-15 -0.9853968E+00
 -0.8764952E+00 -0.4604307E+01 -0.5437863E+01   0.1702739E+00 -0.1077891E-15 -0.9853968E+00
 -0.8764952E+00  0.4604307E+01 -0.5437863E+01   0.1702739E+00 -0.1077891E-15 -0.9853968E+00
           4
  0.8764952E+00  0.4604307E+01  0.5437863E+01  -0.1702739E+00 -0.1465355E-15  0.9853968E+00
 -0.2650480E+01  0.4604307E+01  0.4828411E+01  -0.1702739E+00 -0.1465355E-15  0.9853968E+00
 -0.2650480E+01 -0.4604307E+01  0.4828411E+01  -0.1702739E+00 -0.1465355E-15  0.9853968E+00
  0.8764952E+00 -0.4604307E+01  0.5437863E+01  -0.1702739E+00 -0.1465355E-15  0.9853968E+00
           6
  0.2650480E+01  0.4604307E+01 -0.4828411E+01   0.1675505E-15  0.1000000E+01 -0.0000000E+00
 -0.8764952E+00  0.4604307E+01 -0.5437863E+01   0.1675505E-15  0.1000000E+01 -0.0000000E+00
 -0.2650480E+01  0.4604307E+01 -0.4828411E+01   0.1675505E-15  0.1000000E+01 -0.0000000E+00
 -0.2650480E+01  0.4604307E+01  0.4828411E+01   0.1675505E-15  0.1000000E+01 -0.0000000E+00
  0.8764952E+00  0.4604307E+01  0.5437863E+01   0.1675505E-15  0.1000000E+01 -0.0000000E+00
  0.2650480E+01  0.4604307E+01  0.4828411E+01   0.1675505E-15  0.1000000E+01 -0.0000000E+00
           4
  0.2650480E+01  0.4604307E+01  0.4828411E+01   0.1000000E+01  0.0000000E+00  0.0000000E+00
  0.2650480E+01 -0.4604307E+01  0.4828411E+01   0.1000000E+01  0.0000000E+00  0.0000000E+00
  0.2650480E+01 -0.4604307E+01 -0.4828411E+01   0.1000000E+01  0.0000000E+00  0.0000000E+00
  0.2650480E+01  0.4604307E+01 -0.4828411E+01   0.1000000E+01  0.0000000E+00  0.0000000E+00
           4
  0.2650480E+01 -0.4604307E+01  0.4828411E+01   0.3249103E+00  0.1028395E-15  0.9457448E+00
  0.2650480E+01  0.4604307E+01  0.4828411E+01   0.3249103E+00  0.1028395E-15  0.9457448E+00
  0.8764952E+00  0.4604307E+01  0.5437863E+01   0.3249103E+00  0.1028395E-15  0.9457448E+00
  0.8764952E+00 -0.4604307E+01  0.5437863E+01   0.3249103E+00  0.1028395E-15  0.9457448E+00
 WIGNER-SEITZ-CONVCELL_END
 BRILLOUIN-ZONE-PRIMCELL
           4
  0.9992195E-01  0.5429699E-01 -0.1610580E-01   0.9457448E+00 -0.5793299E-16 -0.3249103E+00
  0.9992195E-01 -0.5429699E-01 -0.1610580E-01   0.9457448E+00 -0.5793299E-16 -0.3249103E+00
  0.8872313E-01 -0.5429699E-01 -0.4870316E-01   0.9457448E+00 -0.5793299E-16 -0.3249103E+00
  0.8872313E-01  0.5429699E-01 -0.4870316E-01   0.9457448E+00 -0.5793299E-16 -0.3249103E+00
           4
 -0.8872313E-01  0.5429699E-01 -0.4870316E-01   0.0000000E+00  0.1987271E-16 -0.1000000E+01
  0.8872313E-01  0.5429699E-01 -0.4870316E-01   0.0000000E+00  0.1987271E-16 -0.1000000E+01
  0.8872313E-01 -0.5429699E-01 -0.4870316E-01   0.0000000E+00  0.1987271E-16 -0.1000000E+01
 -0.8872313E-01 -0.5429699E-01 -0.4870316E-01   0.0000000E+00  0.1987271E-16 -0.1000000E+01
           6
  0.8872313E-01 -0.5429699E-01  0.4870316E-01  -0.0000000E+00 -0.1000000E+01 -0.2999030E-15
 -0.8872313E-01 -0.5429699E-01  0.4870316E-01  -0.0000000E+00 -0.1000000E+01 -0.2999030E-15
 -0.9992195E-01 -0.5429699E-01  0.1610580E-01  -0.0000000E+00 -0.1000000E+01 -0.2999030E-15
 -0.8872313E-01 -0.5429699E-01 -0.4870316E-01  -0.0000000E+00 -0.1000000E+01 -0.2999030E-15
  0.8872313E-01 -0.5429699E-01 -0.4870316E-01  -0.0000000E+00 -0.1000000E+01 -0.2999030E-15
  0.9992195E-01 -0.5429699E-01 -0.1610580E-01  -0.0000000E+00 -0.1000000E+01 -0.2999030E-15
           4
  0.8872313E-01 -0.5429699E-01  0.4870316E-01   0.9853968E+00 -0.1971012E-15  0.1702739E+00
  0.9992195E-01 -0.5429699E-01 -0.1610580E-01   0.9853968E+00 -0.1971012E-15  0.1702739E+00
  0.9992195E-01  0.5429699E-01 -0.1610580E-01   0.9853968E+00 -0.1971012E-15  0.1702739E+00
  0.8872313E-01  0.5429699E-01  0.4870316E-01   0.9853968E+00 -0.1971012E-15  0.1702739E+00
           4
 -0.8872313E-01  0.5429699E-01 -0.4870316E-01  -0.9853968E+00 -0.3491471E-15 -0.1702739E+00
 -0.8872313E-01 -0.5429699E-01 -0.4870316E-01  -0.9853968E+00 -0.3491471E-15 -0.1702739E+00
 -0.9992195E-01 -0.5429699E-01  0.1610580E-01  -0.9853968E+00 -0.3491471E-15 -0.1702739E+00
 -0.9992195E-01  0.5429699E-01  0.1610580E-01  -0.9853968E+00 -0.3491471E-15 -0.1702739E+00
           6
  0.9992195E-01  0.5429699E-01 -0.1610580E-01   0.0000000E+00  0.1000000E+01 -0.0000000E+00
  0.8872313E-01  0.5429699E-01 -0.4870316E-01   0.0000000E+00  0.1000000E+01 -0.0000000E+00
 -0.8872313E-01  0.5429699E-01 -0.4870316E-01   0.0000000E+00  0.1000000E+01 -0.0000000E+00
 -0.9992195E-01  0.5429699E-01  0.1610580E-01   0.0000000E+00  0.1000000E+01 -0.0000000E+00
 -0.8872313E-01  0.5429699E-01  0.4870316E-01   0.0000000E+00  0.1000000E+01 -0.0000000E+00
  0.8872313E-01  0.5429699E-01  0.4870316E-01   0.0000000E+00  0.1000000E+01 -0.0000000E+00
           4
 -0.8872313E-01 -0.5429699E-01  0.4870316E-01  -0.0000000E+00 -0.3974542E-16  0.1000000E+01
  0.8872313E-01 -0.5429699E-01  0.4870316E-01  -0.0000000E+00 -0.3974542E-16  0.1000000E+01
  0.8872313E-01  0.5429699E-01  0.4870316E-01  -0.0000000E+00 -0.3974542E-16  0.1000000E+01
 -0.8872313E-01  0.5429699E-01  0.4870316E-01  -0.0000000E+00 -0.3974542E-16  0.1000000E+01
           4
 -0.8872313E-01  0.5429699E-01  0.4870316E-01  -0.9457448E+00 -0.0000000E+00  0.3249103E+00
 -0.9992195E-01  0.5429699E-01  0.1610580E-01  -0.9457448E+00 -0.0000000E+00  0.3249103E+00
 -0.9992195E-01 -0.5429699E-01  0.1610580E-01  -0.9457448E+00 -0.0000000E+00  0.3249103E+00
 -0.8872313E-01 -0.5429699E-01  0.4870316E-01  -0.9457448E+00 -0.0000000E+00  0.3249103E+00
 BRILLOUIN-ZONE-PRIMCELL_END
 BRILLOUIN-ZONE-CONVCELL
           4
  0.9992195E-01  0.5429699E-01 -0.1610580E-01   0.9457448E+00 -0.5793299E-16 -0.3249103E+00
  0.9992195E-01 -0.5429699E-01 -0.1610580E-01   0.9457448E+00 -0.5793299E-16 -0.3249103E+00
  0.8872313E-01 -0.5429699E-01 -0.4870316E-01   0.9457448E+00 -0.5793299E-16 -0.3249103E+00
  0.8872313E-01  0.5429699E-01 -0.4870316E-01   0.9457448E+00 -0.5793299E-16 -0.3249103E+00
           4
 -0.8872313E-01  0.5429699E-01 -0.4870316E-01   0.0000000E+00  0.1987271E-16 -0.1000000E+01
  0.8872313E-01  0.5429699E-01 -0.4870316E-01   0.0000000E+00  0.1987271E-16 -0.1000000E+01
  0.8872313E-01 -0.5429699E-01 -0.4870316E-01   0.0000000E+00  0.1987271E-16 -0.1000000E+01
 -0.8872313E-01 -0.5429699E-01 -0.4870316E-01   0.0000000E+00  0.1987271E-16 -0.1000000E+01
           6
  0.8872313E-01 -0.5429699E-01  0.4870316E-01  -0.0000000E+00 -0.1000000E+01 -0.2999030E-15
 -0.8872313E-01 -0.5429699E-01  0.4870316E-01  -0.0000000E+00 -0.1000000E+01 -0.2999030E-15
 -0.9992195E-01 -0.5429699E-01  0.1610580E-01  -0.0000000E+00 -0.1000000E+01 -0.2999030E-15
 -0.8872313E-01 -0.5429699E-01 -0.4870316E-01  -0.0000000E+00 -0.1000000E+01 -0.2999030E-15
  0.8872313E-01 -0.5429699E-01 -0.4870316E-01  -0.0000000E+00 -0.1000000E+01 -0.2999030E-15
  0.9992195E-01 -0.5429699E-01 -0.1610580E-01  -0.0000000E+00 -0.1000000E+01 -0.2999030E-15
           4
  0.8872313E-01 -0.5429699E-01  0.4870316E-01   0.9853968E+00 -0.1971012E-15  0.1702739E+00
  0.9992195E-01 -0.5429699E-01 -0.1610580E-01   0.9853968E+00 -0.1971012E-15  0.1702739E+00
  0.9992195E-01  0.5429699E-01 -0.1610580E-01   0.9853968E+00 -0.1971012E-15  0.1702739E+00
  0.8872313E-01  0.5429699E-01  0.4870316E-01   0.9853968E+00 -0.1971012E-15  0.1702739E+00
           4
 -0.8872313E-01  0.5429699E-01 -0.4870316E-01  -0.9853968E+00 -0.3491471E-15 -0.1702739E+00
 -0.8872313E-01 -0.5429699E-01 -0.4870316E-01  -0.9853968E+00 -0.3491471E-15 -0.1702739E+00
 -0.9992195E-01 -0.5429699E-01  0.1610580E-01  -0.9853968E+00 -0.3491471E-15 -0.1702739E+00
 -0.9992195E-01  0.5429699E-01  0.1610580E-01  -0.9853968E+00 -0.3491471E-15 -0.1702739E+00
           6
  0.9992195E-01  0.5429699E-01 -0.1610580E-01   0.0000000E+00  0.1000000E+01 -0.0000000E+00
  0.8872313E-01  0.5429699E-01 -0.4870316E-01   0.0000000E+00  0.1000000E+01 -0.0000000E+00
 -0.8872313E-01  0.5429699E-01 -0.4870316E-01   0.0000000E+00  0.1000000E+01 -0.0000000E+00
 -0.9992195E-01  0.5429699E-01  0.1610580E-01   0.0000000E+00  0.1000000E+01 -0.0000000E+00
 -0.8872313E-01  0.5429699E-01  0.4870316E-01   0.0000000E+00  0.1000000E+01 -0.0000000E+00
  0.8872313E-01  0.5429699E-01  0.4870316E-01   0.0000000E+00  0.1000000E+01 -0.0000000E+00
           4
 -0.8872313E-01 -0.5429699E-01  0.4870316E-01  -0.0000000E+00 -0.3974542E-16  0.1000000E+01
  0.8872313E-01 -0.5429699E-01  0.4870316E-01  -0.0000000E+00 -0.3974542E-16  0.1000000E+01
  0.8872313E-01  0.5429699E-01  0.4870316E-01  -0.0000000E+00 -0.3974542E-16  0.1000000E+01
 -0.8872313E-01  0.5429699E-01  0.4870316E-01  -0.0000000E+00 -0.3974542E-16  0.1000000E+01
           4
 -0.8872313E-01  0.5429699E-01  0.4870316E-01  -0.9457448E+00 -0.0000000E+00  0.3249103E+00
 -0.9992195E-01  0.5429699E-01  0.1610580E-01  -0.9457448E+00 -0.0000000E+00  0.3249103E+00
 -0.9992195E-01 -0.5429699E-01  0.1610580E-01  -0.9457448E+00 -0.0000000E+00  0.3249103E+00
 -0.8872313E-01 -0.5429699E-01  0.4870316E-01  -0.9457448E+00 -0.0000000E+00  0.3249103E+00
 BRILLOUIN-ZONE-CONVCELL_END
 ATOMS
   19    0.0000000000    4.5164745930    0.0000000000    0.0000000000   -0.0007556300    0.0000000000
   19    2.6504805320    0.0688459620    0.0000000000    0.0000000000    0.0008153400    0.0000000000
   12   -0.8869923670    0.0327743170    5.1331359820    0.0000000000    0.0008011800    0.0000000000
   12   -0.8869923670    3.0815680120    5.1331359820    0.0000000000    0.0004723200    0.0000000000
   12   -0.8869923670    6.0985128030    5.1331359820    0.0000000000   -0.0002944800    0.0000000000
   12    1.7634881650    7.6656769520    5.1331359820    0.0000000000   -0.0002066000    0.0000000000
   12    1.7634881650    1.6124770420    5.1331359820    0.0000000000    0.0005191000    0.0000000000
   26    1.7634881650    4.5878130490    5.1331359820    0.0000000000   -0.0000456500    0.0000000000
   14    0.0394422460    1.5213021500    2.3377617250   -0.0000434300    0.0000324000    0.0003945300
   14    3.4875338080    1.5213021500    7.9285107000    0.0000434300    0.0000324000   -0.0003945300
   14    3.5899736380    7.6790650180    7.8647895050    0.0001594000    0.0005046100   -0.0003658100
   14   -0.0629972710    7.6790650180    2.4014824590   -0.0001594000    0.0005046100    0.0003658100
   14    2.5826391680    6.1285388950    2.3744814440   -0.0002120300   -0.0002097200    0.0000435600
   14    0.9443371350    6.1285388950    7.8917906730    0.0002120300   -0.0002097200   -0.0000435600
   13    0.8388983330    3.0652467190    7.9110560430    0.0000235900   -0.0000745600   -0.0005858100
   13    2.6880778130    3.0652467190    2.3552160640   -0.0000235900   -0.0000745600    0.0005858100
    8   -0.0163004300    1.5141796530    3.9708626410    0.0000554800   -0.0001680200    0.0006337600
    8    3.5432765270    1.5141796530    6.2954093230   -0.0000554800   -0.0001680200   -0.0006337600
    8    3.5565901720    7.6623135010    6.2457188170    0.0002208300   -0.0003601700   -0.0005136100
    8   -0.0296139210    7.6623135010    4.0205531460   -0.0002208300   -0.0003601700    0.0005136100
    8    2.6332279650    6.1412513120    4.0051573730   -0.0003960000   -0.0004828300    0.0006166800
    8    0.8937484180    6.1412513120    6.2611142830    0.0003960000   -0.0004828300   -0.0006166800
    8    0.8639120290    3.1064591100    6.1715664510    0.0001911800    0.0001419700   -0.0007497500
    8    2.6630640890    3.1064591100    4.0947058210   -0.0001911800    0.0001419700    0.0007497500
    8    1.5166043610    1.8805074290    1.7547654840    0.0000986800   -0.0003526700   -0.0006115500
    8    2.0103719930    1.8805074290    8.5115063360   -0.0000986800   -0.0003526700    0.0006115500
    8    4.9862522990    9.1814981600    1.7857537250   -0.0006332300    0.0001966300   -0.0006088700
    8   -1.4592761710    9.1814981600    8.4805187010    0.0006332300    0.0001966300    0.0006088700
    8    2.1503689370    7.1310339880    8.4668607580   -0.0000822800    0.0005106600    0.0007652400
    8    1.3766073930    7.1310339880    1.7994112050    0.0000822800    0.0005106600   -0.0007652400
    8    4.0174357390    6.7462650410    1.7874495800    0.0004704500   -0.0003867000   -0.0004994600
    8   -0.4904595420    6.7462650410    8.4788226910   -0.0004704500   -0.0003867000    0.0004994600
    8    2.3330961630    4.6785721210    1.7015172430   -0.0004002400    0.0004410100   -0.0000733500
    8    1.1938801140    4.6785721210    8.5647550290    0.0004002400    0.0004410100    0.0000733500
    8   -0.7174626190    2.5404082420    8.5670783210   -0.0004598000   -0.0002942900    0.0002745100
    8    4.2444390020    2.5404082420    1.6991933350    0.0004598000   -0.0002942900   -0.0002745100
    8    0.0389904810    4.6223086450    4.0909705240    0.0006583400   -0.0003002800   -0.0004160100
    8    3.4879858490    4.6223086450    6.1753014400   -0.0006583400   -0.0003002800    0.0004160100
    8    2.6454317060    9.2083713740    4.1068016920   -0.0003047600    0.0001315900   -0.0004360500
    8    0.8815444650    9.2083713740    6.1594702710    0.0003047600    0.0001315900    0.0004360500
    1    0.1635396820    4.5330668650    3.1346009360   -0.0005192800    0.0002200400    0.0005070800
    1    3.3634364350    4.5330668650    7.1316713360    0.0005192800    0.0002200400   -0.0005070800
    1    2.6272792680    0.1227756450    3.1477188350   -0.0000446200   -0.0002024700    0.0005114100
    1    0.8996971690    0.1227756450    7.1185525120    0.0000446200   -0.0002024700   -0.0005114100
   19   -1.7739847060    4.5164745930   10.2662732760    0.0000000000   -0.0007556300    0.0000000000
   19    0.8764958260    0.0688459620   10.2662732760    0.0000000000    0.0008153400    0.0000000000
   19    5.3009597160    4.5164745930    0.0000000000    0.0000000000   -0.0007556300    0.0000000000
   12    4.4139673490    0.0327743170    5.1331359820    0.0000000000    0.0008011800    0.0000000000
   12    4.4139673490    3.0815680120    5.1331359820    0.0000000000    0.0004723200    0.0000000000
   12    4.4139673490    6.0985128030    5.1331359820    0.0000000000   -0.0002944800    0.0000000000
   19    3.5269750100    4.5164745930   10.2662732760    0.0000000000   -0.0007556300    0.0000000000
 FRAMES
1      0.0000000000    0.0000000000    0.0000000000      5.3009597160    0.0000000000    0.0000000000
1      0.0000000000    0.0000000000    0.0000000000      0.0000000000    9.2086141920    0.0000000000
1      0.0000000000    0.0000000000    0.0000000000     -1.7739847060    0.0000000000   10.2662732760
1     -1.7739847060    0.0000000000   10.2662732760      3.5269750100    0.0000000000   10.2662732760
1     -1.7739847060    0.0000000000   10.2662732760     -1.7739847060    9.2086141920   10.2662732760
1      0.0000000000    9.2086141920    0.0000000000      5.3009597160    9.2086141920    0.0000000000
1      0.0000000000    9.2086141920    0.0000000000     -1.7739847060    9.2086141920   10.2662732760
1     -1.7739847060    9.2086141920   10.2662732760      3.5269750100    9.2086141920   10.2662732760
1      5.3009597160    0.0000000000    0.0000000000      5.3009597160    9.2086141920    0.0000000000
1      5.3009597160    0.0000000000    0.0000000000      3.5269750100    0.0000000000   10.2662732760
1      3.5269750100    0.0000000000   10.2662732760      3.5269750100    9.2086141920   10.2662732760
1      5.3009597160    9.2086141920    0.0000000000      3.5269750100    9.2086141920   10.2662732760
