 INFO
nunit      1    1    1
unit   cell
celltype   primcell
shape   parapipedal
 END_INFO
 DIM-GROUP
           3           1
 PRIMVEC
    5.2855997630    0.0000000000    0.0000000000
    0.0000000000    9.1787981240    0.0000000000
   -1.7735195730    0.0000000000   10.0361012630
 CONVVEC
    5.2855997630    0.0000000000    0.0000000000
    0.0000000000    9.1787981240    0.0000000000
   -1.7735195730    0.0000000000   10.0361012630
 PRIMCOORD
          44           1
 19      0.0000000000     4.5276085460     0.0000000000     0.0000000000     0.0004495800     0.0000000000
 19      2.6427998810     0.0393688990     0.0000000000     0.0000000000    -0.0004856300     0.0000000000
 12     -0.8867597870     0.0331233160     5.0180506310     0.0000000000    -0.0006330000     0.0000000000
 12     -0.8867597870     3.0720893000     5.0180506310     0.0000000000     0.0009588100     0.0000000000
 12     -0.8867597870     6.0755920580     5.0180506310     0.0000000000     0.0000454400     0.0000000000
 12      1.7560400950     7.6409123880     5.0180506310     0.0000000000    -0.0002604500     0.0000000000
 12      1.7560400950     1.6075946130     5.0180506310     0.0000000000    -0.0006835400     0.0000000000
 26      1.7560400950     4.5753784580     5.0180506310     0.0000000000     0.0000150100     0.0000000000
 14      0.0394175070     1.5165376150     2.2370327660     0.0000933700     0.0000456700    -0.0000336000
 14      3.4726625770     1.5165376150     7.7990686470    -0.0000933700     0.0000456700     0.0000336000
 14      3.5713077820     7.6555770850     7.7391150630     0.0002012300    -0.0003085600     0.0001156100
 14     -0.0592275920     7.6555770850     2.2969861990    -0.0002012300    -0.0003085600    -0.0001156100
 14      2.5785109720     6.1080442610     2.2687842000    -0.0003927400     0.0000357500     0.0003111800
 14      0.9335691650     6.1080442610     7.7673173640     0.0003927400     0.0000357500    -0.0003111800
 13      0.8325615250     3.0560862560     7.7855368900    -0.0000242500    -0.0000903900    -0.0007067900
 13      2.6795185060     3.0560862560     2.2505643720     0.0000242500    -0.0000903900     0.0007067900
  8     -0.0174931270     1.5061785090     3.8679019640     0.0000373100     0.0001804600    -0.0003545600
  8      3.5295732120     1.5061785090     6.1681989970    -0.0000373100     0.0001804600     0.0003545600
  8      3.5413863820     7.6364580870     6.1221392280     0.0002146500     0.0002209300     0.0005019000
  8     -0.0293061920     7.6364580870     3.9139620350    -0.0002146500     0.0002209300    -0.0005019000
  8      2.6267075340     6.1192040050     3.8971409220    -0.0001539900     0.0002578300     0.0002698500
  8      0.8853727080     6.1192040050     6.1389600400     0.0001539900     0.0002578300    -0.0002698500
  8      0.8578311810     3.0995224540     6.0496899880     0.0000575000    -0.0000694300    -0.0005152500
  8      2.6542490090     3.0995224540     3.9864112750    -0.0000575000    -0.0000694300     0.0005152500
  8      1.5204691930     1.8594996810     1.6610360250     0.0001247800    -0.0002293700    -0.0001379000
  8      1.9916110240     1.8594996810     8.3750650870    -0.0001247800    -0.0002293700     0.0001379000
  8      4.9561035820     9.1531909540     1.6820130340    -0.0002068200    -0.0000412100     0.0005652400
  8     -1.4440234190     9.1531909540     8.3540883800     0.0002068200    -0.0000412100    -0.0005652400
  8      2.1252603230     7.1266874650     8.3400848670     0.0002026000     0.0002328700     0.0000996300
  8      1.3868198660     7.1266874650     1.6960163960    -0.0002026000     0.0002328700    -0.0000996300
  8      4.0211234390     6.7053449600     1.6823491220    -0.0003892100     0.0001879900     0.0002908600
  8     -0.5090433020     6.7053449600     8.3537524420     0.0003892100     0.0001879900    -0.0002908600
  8      2.3099469500     4.6630531570     1.5986910560     0.0000062800     0.0002920900     0.0004337400
  8      1.2021332400     4.6630531570     8.4374102070    -0.0000062800     0.0002920900    -0.0004337400
  8     -0.7297014030     2.5482088000     8.4317965920     0.0000782800    -0.0002265400    -0.0000424200
  8      4.2417815130     2.5482088000     1.6043046710    -0.0000782800    -0.0002265400     0.0000424200
  8      0.0366573140     4.6087100780     3.9686977680     0.0000073600    -0.0005074100     0.0007326000
  8      3.4754227710     4.6087100780     6.0674031940    -0.0000073600    -0.0005074100    -0.0007326000
  8      2.6335552640     9.1758210500     3.9862664160     0.0001195900     0.0003167700     0.0005271800
  8      0.8785249250     9.1758210500     6.0498348470    -0.0001195900     0.0003167700    -0.0005271800
  1      0.1453018760     4.5174163310     3.0110878780     0.0006602100    -0.0002333000     0.0005564600
  1      3.3667782710     4.5174163310     7.0250133850    -0.0006602100    -0.0002333000    -0.0005564600
  1      2.6109472590     0.1258635510     3.0288841670    -0.0001944000     0.0002327300    -0.0000621100
  1      0.9011329840     0.1258635510     7.0072167950     0.0001944000     0.0002327300     0.0000621100
 CONVCOORD
          44           1
 19      0.0000000000     4.5276085460     0.0000000000
 19      2.6427998810     0.0393688990     0.0000000000
 12     -0.8867597870     0.0331233160     5.0180506310
 12     -0.8867597870     3.0720893000     5.0180506310
 12     -0.8867597870     6.0755920580     5.0180506310
 12      1.7560400950     7.6409123880     5.0180506310
 12      1.7560400950     1.6075946130     5.0180506310
 26      1.7560400950     4.5753784580     5.0180506310
 14      0.0394175070     1.5165376150     2.2370327660
 14      3.4726625770     1.5165376150     7.7990686470
 14      3.5713077820     7.6555770850     7.7391150630
 14     -0.0592275920     7.6555770850     2.2969861990
 14      2.5785109720     6.1080442610     2.2687842000
 14      0.9335691650     6.1080442610     7.7673173640
 13      0.8325615250     3.0560862560     7.7855368900
 13      2.6795185060     3.0560862560     2.2505643720
  8     -0.0174931270     1.5061785090     3.8679019640
  8      3.5295732120     1.5061785090     6.1681989970
  8      3.5413863820     7.6364580870     6.1221392280
  8     -0.0293061920     7.6364580870     3.9139620350
  8      2.6267075340     6.1192040050     3.8971409220
  8      0.8853727080     6.1192040050     6.1389600400
  8      0.8578311810     3.0995224540     6.0496899880
  8      2.6542490090     3.0995224540     3.9864112750
  8      1.5204691930     1.8594996810     1.6610360250
  8      1.9916110240     1.8594996810     8.3750650870
  8      4.9561035820     9.1531909540     1.6820130340
  8     -1.4440234190     9.1531909540     8.3540883800
  8      2.1252603230     7.1266874650     8.3400848670
  8      1.3868198660     7.1266874650     1.6960163960
  8      4.0211234390     6.7053449600     1.6823491220
  8     -0.5090433020     6.7053449600     8.3537524420
  8      2.3099469500     4.6630531570     1.5986910560
  8      1.2021332400     4.6630531570     8.4374102070
  8     -0.7297014030     2.5482088000     8.4317965920
  8      4.2417815130     2.5482088000     1.6043046710
  8      0.0366573140     4.6087100780     3.9686977680
  8      3.4754227710     4.6087100780     6.0674031940
  8      2.6335552640     9.1758210500     3.9862664160
  8      0.8785249250     9.1758210500     6.0498348470
  1      0.1453018760     4.5174163310     3.0110878780
  1      3.3667782710     4.5174163310     7.0250133850
  1      2.6109472590     0.1258635510     3.0288841670
  1      0.9011329840     0.1258635510     7.0072167950
 RECIP-PRIMVEC
    0.1891932883   -0.0000000000    0.0334331023

    0.0000000000    0.1089467255   -0.0000000000

    0.0000000000    0.0000000000    0.0996402860

 RECIP-CONVVEC
    0.1891932883   -0.0000000000    0.0334331023

    0.0000000000    0.1089467255   -0.0000000000

    0.0000000000    0.0000000000    0.0996402860

 WIGNER-SEITZ-PRIMCELL
           4
 -0.2642800E+01  0.4589399E+01 -0.4707734E+01  -0.3303039E+00  0.0000000E+00 -0.9438746E+00
 -0.8692803E+00  0.4589399E+01 -0.5328367E+01  -0.3303039E+00  0.0000000E+00 -0.9438746E+00
 -0.8692803E+00 -0.4589399E+01 -0.5328367E+01  -0.3303039E+00  0.0000000E+00 -0.9438746E+00
 -0.2642800E+01 -0.4589399E+01 -0.4707734E+01  -0.3303039E+00  0.0000000E+00 -0.9438746E+00
           4
 -0.2642800E+01  0.4589399E+01 -0.4707734E+01  -0.1000000E+01 -0.0000000E+00 -0.0000000E+00
 -0.2642800E+01 -0.4589399E+01 -0.4707734E+01  -0.1000000E+01 -0.0000000E+00 -0.0000000E+00
 -0.2642800E+01 -0.4589399E+01  0.4707734E+01  -0.1000000E+01 -0.0000000E+00 -0.0000000E+00
 -0.2642800E+01  0.4589399E+01  0.4707734E+01  -0.1000000E+01 -0.0000000E+00 -0.0000000E+00
           6
  0.2642800E+01 -0.4589399E+01  0.4707734E+01  -0.0000000E+00 -0.1000000E+01 -0.5415026E-15
  0.8692803E+00 -0.4589399E+01  0.5328367E+01  -0.0000000E+00 -0.1000000E+01 -0.5415026E-15
 -0.2642800E+01 -0.4589399E+01  0.4707734E+01  -0.0000000E+00 -0.1000000E+01 -0.5415026E-15
 -0.2642800E+01 -0.4589399E+01 -0.4707734E+01  -0.0000000E+00 -0.1000000E+01 -0.5415026E-15
 -0.8692803E+00 -0.4589399E+01 -0.5328367E+01  -0.0000000E+00 -0.1000000E+01 -0.5415026E-15
  0.2642800E+01 -0.4589399E+01 -0.4707734E+01  -0.0000000E+00 -0.1000000E+01 -0.5415026E-15
           4
  0.2642800E+01  0.4589399E+01 -0.4707734E+01   0.1740178E+00  0.0000000E+00 -0.9847425E+00
  0.2642800E+01 -0.4589399E+01 -0.4707734E+01   0.1740178E+00  0.0000000E+00 -0.9847425E+00
 -0.8692803E+00 -0.4589399E+01 -0.5328367E+01   0.1740178E+00  0.0000000E+00 -0.9847425E+00
 -0.8692803E+00  0.4589399E+01 -0.5328367E+01   0.1740178E+00  0.0000000E+00 -0.9847425E+00
           4
 -0.2642800E+01  0.4589399E+01  0.4707734E+01  -0.1740178E+00 -0.1085257E-15  0.9847425E+00
 -0.2642800E+01 -0.4589399E+01  0.4707734E+01  -0.1740178E+00 -0.1085257E-15  0.9847425E+00
  0.8692803E+00 -0.4589399E+01  0.5328367E+01  -0.1740178E+00 -0.1085257E-15  0.9847425E+00
  0.8692803E+00  0.4589399E+01  0.5328367E+01  -0.1740178E+00 -0.1085257E-15  0.9847425E+00
           6
  0.2642800E+01  0.4589399E+01 -0.4707734E+01   0.0000000E+00  0.1000000E+01 -0.0000000E+00
 -0.8692803E+00  0.4589399E+01 -0.5328367E+01   0.0000000E+00  0.1000000E+01 -0.0000000E+00
 -0.2642800E+01  0.4589399E+01 -0.4707734E+01   0.0000000E+00  0.1000000E+01 -0.0000000E+00
 -0.2642800E+01  0.4589399E+01  0.4707734E+01   0.0000000E+00  0.1000000E+01 -0.0000000E+00
  0.8692803E+00  0.4589399E+01  0.5328367E+01   0.0000000E+00  0.1000000E+01 -0.0000000E+00
  0.2642800E+01  0.4589399E+01  0.4707734E+01   0.0000000E+00  0.1000000E+01 -0.0000000E+00
           4
  0.2642800E+01  0.4589399E+01  0.4707734E+01   0.1000000E+01  0.0000000E+00  0.0000000E+00
  0.2642800E+01 -0.4589399E+01  0.4707734E+01   0.1000000E+01  0.0000000E+00  0.0000000E+00
  0.2642800E+01 -0.4589399E+01 -0.4707734E+01   0.1000000E+01  0.0000000E+00  0.0000000E+00
  0.2642800E+01  0.4589399E+01 -0.4707734E+01   0.1000000E+01  0.0000000E+00  0.0000000E+00
           4
  0.8692803E+00 -0.4589399E+01  0.5328367E+01   0.3303039E+00 -0.2059931E-15  0.9438746E+00
  0.2642800E+01 -0.4589399E+01  0.4707734E+01   0.3303039E+00 -0.2059931E-15  0.9438746E+00
  0.2642800E+01  0.4589399E+01  0.4707734E+01   0.3303039E+00 -0.2059931E-15  0.9438746E+00
  0.8692803E+00  0.4589399E+01  0.5328367E+01   0.3303039E+00 -0.2059931E-15  0.9438746E+00
 WIGNER-SEITZ-PRIMCELL_END
 WIGNER-SEITZ-CONVCELL
           4
 -0.2642800E+01  0.4589399E+01 -0.4707734E+01  -0.3303039E+00  0.0000000E+00 -0.9438746E+00
 -0.8692803E+00  0.4589399E+01 -0.5328367E+01  -0.3303039E+00  0.0000000E+00 -0.9438746E+00
 -0.8692803E+00 -0.4589399E+01 -0.5328367E+01  -0.3303039E+00  0.0000000E+00 -0.9438746E+00
 -0.2642800E+01 -0.4589399E+01 -0.4707734E+01  -0.3303039E+00  0.0000000E+00 -0.9438746E+00
           4
 -0.2642800E+01  0.4589399E+01 -0.4707734E+01  -0.1000000E+01 -0.0000000E+00 -0.0000000E+00
 -0.2642800E+01 -0.4589399E+01 -0.4707734E+01  -0.1000000E+01 -0.0000000E+00 -0.0000000E+00
 -0.2642800E+01 -0.4589399E+01  0.4707734E+01  -0.1000000E+01 -0.0000000E+00 -0.0000000E+00
 -0.2642800E+01  0.4589399E+01  0.4707734E+01  -0.1000000E+01 -0.0000000E+00 -0.0000000E+00
           6
  0.2642800E+01 -0.4589399E+01  0.4707734E+01  -0.0000000E+00 -0.1000000E+01 -0.5415026E-15
  0.8692803E+00 -0.4589399E+01  0.5328367E+01  -0.0000000E+00 -0.1000000E+01 -0.5415026E-15
 -0.2642800E+01 -0.4589399E+01  0.4707734E+01  -0.0000000E+00 -0.1000000E+01 -0.5415026E-15
 -0.2642800E+01 -0.4589399E+01 -0.4707734E+01  -0.0000000E+00 -0.1000000E+01 -0.5415026E-15
 -0.8692803E+00 -0.4589399E+01 -0.5328367E+01  -0.0000000E+00 -0.1000000E+01 -0.5415026E-15
  0.2642800E+01 -0.4589399E+01 -0.4707734E+01  -0.0000000E+00 -0.1000000E+01 -0.5415026E-15
           4
  0.2642800E+01  0.4589399E+01 -0.4707734E+01   0.1740178E+00  0.0000000E+00 -0.9847425E+00
  0.2642800E+01 -0.4589399E+01 -0.4707734E+01   0.1740178E+00  0.0000000E+00 -0.9847425E+00
 -0.8692803E+00 -0.4589399E+01 -0.5328367E+01   0.1740178E+00  0.0000000E+00 -0.9847425E+00
 -0.8692803E+00  0.4589399E+01 -0.5328367E+01   0.1740178E+00  0.0000000E+00 -0.9847425E+00
           4
 -0.2642800E+01  0.4589399E+01  0.4707734E+01  -0.1740178E+00 -0.1085257E-15  0.9847425E+00
 -0.2642800E+01 -0.4589399E+01  0.4707734E+01  -0.1740178E+00 -0.1085257E-15  0.9847425E+00
  0.8692803E+00 -0.4589399E+01  0.5328367E+01  -0.1740178E+00 -0.1085257E-15  0.9847425E+00
  0.8692803E+00  0.4589399E+01  0.5328367E+01  -0.1740178E+00 -0.1085257E-15  0.9847425E+00
           6
  0.2642800E+01  0.4589399E+01 -0.4707734E+01   0.0000000E+00  0.1000000E+01 -0.0000000E+00
 -0.8692803E+00  0.4589399E+01 -0.5328367E+01   0.0000000E+00  0.1000000E+01 -0.0000000E+00
 -0.2642800E+01  0.4589399E+01 -0.4707734E+01   0.0000000E+00  0.1000000E+01 -0.0000000E+00
 -0.2642800E+01  0.4589399E+01  0.4707734E+01   0.0000000E+00  0.1000000E+01 -0.0000000E+00
  0.8692803E+00  0.4589399E+01  0.5328367E+01   0.0000000E+00  0.1000000E+01 -0.0000000E+00
  0.2642800E+01  0.4589399E+01  0.4707734E+01   0.0000000E+00  0.1000000E+01 -0.0000000E+00
           4
  0.2642800E+01  0.4589399E+01  0.4707734E+01   0.1000000E+01  0.0000000E+00  0.0000000E+00
  0.2642800E+01 -0.4589399E+01  0.4707734E+01   0.1000000E+01  0.0000000E+00  0.0000000E+00
  0.2642800E+01 -0.4589399E+01 -0.4707734E+01   0.1000000E+01  0.0000000E+00  0.0000000E+00
  0.2642800E+01  0.4589399E+01 -0.4707734E+01   0.1000000E+01  0.0000000E+00  0.0000000E+00
           4
  0.8692803E+00 -0.4589399E+01  0.5328367E+01   0.3303039E+00 -0.2059931E-15  0.9438746E+00
  0.2642800E+01 -0.4589399E+01  0.4707734E+01   0.3303039E+00 -0.2059931E-15  0.9438746E+00
  0.2642800E+01  0.4589399E+01  0.4707734E+01   0.3303039E+00 -0.2059931E-15  0.9438746E+00
  0.8692803E+00  0.4589399E+01  0.5328367E+01   0.3303039E+00 -0.2059931E-15  0.9438746E+00
 WIGNER-SEITZ-CONVCELL_END
 BRILLOUIN-ZONE-PRIMCELL
           4
  0.1004465E+00 -0.5447336E-01 -0.1638704E-01   0.9438746E+00  0.5345016E-16 -0.3303039E+00
  0.8874678E-01 -0.5447336E-01 -0.4982014E-01   0.9438746E+00  0.5345016E-16 -0.3303039E+00
  0.8874678E-01  0.5447336E-01 -0.4982014E-01   0.9438746E+00  0.5345016E-16 -0.3303039E+00
  0.1004465E+00  0.5447336E-01 -0.1638704E-01   0.9438746E+00  0.5345016E-16 -0.3303039E+00
           4
 -0.8874678E-01  0.5447336E-01 -0.4982014E-01   0.0000000E+00  0.0000000E+00 -0.1000000E+01
  0.8874678E-01  0.5447336E-01 -0.4982014E-01   0.0000000E+00  0.0000000E+00 -0.1000000E+01
  0.8874678E-01 -0.5447336E-01 -0.4982014E-01   0.0000000E+00  0.0000000E+00 -0.1000000E+01
 -0.8874678E-01 -0.5447336E-01 -0.4982014E-01   0.0000000E+00  0.0000000E+00 -0.1000000E+01
           6
  0.8874678E-01 -0.5447336E-01  0.4982014E-01   0.0000000E+00 -0.1000000E+01 -0.2923284E-15
 -0.8874678E-01 -0.5447336E-01  0.4982014E-01   0.0000000E+00 -0.1000000E+01 -0.2923284E-15
 -0.1004465E+00 -0.5447336E-01  0.1638704E-01   0.0000000E+00 -0.1000000E+01 -0.2923284E-15
 -0.8874678E-01 -0.5447336E-01 -0.4982014E-01   0.0000000E+00 -0.1000000E+01 -0.2923284E-15
  0.8874678E-01 -0.5447336E-01 -0.4982014E-01   0.0000000E+00 -0.1000000E+01 -0.2923284E-15
  0.1004465E+00 -0.5447336E-01 -0.1638704E-01   0.0000000E+00 -0.1000000E+01 -0.2923284E-15
           4
  0.8874678E-01  0.5447336E-01  0.4982014E-01   0.9847425E+00  0.2220266E-16  0.1740178E+00
  0.8874678E-01 -0.5447336E-01  0.4982014E-01   0.9847425E+00  0.2220266E-16  0.1740178E+00
  0.1004465E+00 -0.5447336E-01 -0.1638704E-01   0.9847425E+00  0.2220266E-16  0.1740178E+00
  0.1004465E+00  0.5447336E-01 -0.1638704E-01   0.9847425E+00  0.2220266E-16  0.1740178E+00
           4
 -0.1004465E+00  0.5447336E-01  0.1638704E-01  -0.9847425E+00  0.1480177E-16 -0.1740178E+00
 -0.8874678E-01  0.5447336E-01 -0.4982014E-01  -0.9847425E+00  0.1480177E-16 -0.1740178E+00
 -0.8874678E-01 -0.5447336E-01 -0.4982014E-01  -0.9847425E+00  0.1480177E-16 -0.1740178E+00
 -0.1004465E+00 -0.5447336E-01  0.1638704E-01  -0.9847425E+00  0.1480177E-16 -0.1740178E+00
           6
  0.1004465E+00  0.5447336E-01 -0.1638704E-01  -0.0000000E+00  0.1000000E+01  0.2923284E-15
  0.8874678E-01  0.5447336E-01 -0.4982014E-01  -0.0000000E+00  0.1000000E+01  0.2923284E-15
 -0.8874678E-01  0.5447336E-01 -0.4982014E-01  -0.0000000E+00  0.1000000E+01  0.2923284E-15
 -0.1004465E+00  0.5447336E-01  0.1638704E-01  -0.0000000E+00  0.1000000E+01  0.2923284E-15
 -0.8874678E-01  0.5447336E-01  0.4982014E-01  -0.0000000E+00  0.1000000E+01  0.2923284E-15
  0.8874678E-01  0.5447336E-01  0.4982014E-01  -0.0000000E+00  0.1000000E+01  0.2923284E-15
           4
 -0.8874678E-01 -0.5447336E-01  0.4982014E-01  -0.0000000E+00 -0.0000000E+00  0.1000000E+01
  0.8874678E-01 -0.5447336E-01  0.4982014E-01  -0.0000000E+00 -0.0000000E+00  0.1000000E+01
  0.8874678E-01  0.5447336E-01  0.4982014E-01  -0.0000000E+00 -0.0000000E+00  0.1000000E+01
 -0.8874678E-01  0.5447336E-01  0.4982014E-01  -0.0000000E+00 -0.0000000E+00  0.1000000E+01
           4
 -0.1004465E+00  0.5447336E-01  0.1638704E-01  -0.9438746E+00 -0.0000000E+00  0.3303039E+00
 -0.1004465E+00 -0.5447336E-01  0.1638704E-01  -0.9438746E+00 -0.0000000E+00  0.3303039E+00
 -0.8874678E-01 -0.5447336E-01  0.4982014E-01  -0.9438746E+00 -0.0000000E+00  0.3303039E+00
 -0.8874678E-01  0.5447336E-01  0.4982014E-01  -0.9438746E+00 -0.0000000E+00  0.3303039E+00
 BRILLOUIN-ZONE-PRIMCELL_END
 BRILLOUIN-ZONE-CONVCELL
           4
  0.1004465E+00 -0.5447336E-01 -0.1638704E-01   0.9438746E+00  0.5345016E-16 -0.3303039E+00
  0.8874678E-01 -0.5447336E-01 -0.4982014E-01   0.9438746E+00  0.5345016E-16 -0.3303039E+00
  0.8874678E-01  0.5447336E-01 -0.4982014E-01   0.9438746E+00  0.5345016E-16 -0.3303039E+00
  0.1004465E+00  0.5447336E-01 -0.1638704E-01   0.9438746E+00  0.5345016E-16 -0.3303039E+00
           4
 -0.8874678E-01  0.5447336E-01 -0.4982014E-01   0.0000000E+00  0.0000000E+00 -0.1000000E+01
  0.8874678E-01  0.5447336E-01 -0.4982014E-01   0.0000000E+00  0.0000000E+00 -0.1000000E+01
  0.8874678E-01 -0.5447336E-01 -0.4982014E-01   0.0000000E+00  0.0000000E+00 -0.1000000E+01
 -0.8874678E-01 -0.5447336E-01 -0.4982014E-01   0.0000000E+00  0.0000000E+00 -0.1000000E+01
           6
  0.8874678E-01 -0.5447336E-01  0.4982014E-01   0.0000000E+00 -0.1000000E+01 -0.2923284E-15
 -0.8874678E-01 -0.5447336E-01  0.4982014E-01   0.0000000E+00 -0.1000000E+01 -0.2923284E-15
 -0.1004465E+00 -0.5447336E-01  0.1638704E-01   0.0000000E+00 -0.1000000E+01 -0.2923284E-15
 -0.8874678E-01 -0.5447336E-01 -0.4982014E-01   0.0000000E+00 -0.1000000E+01 -0.2923284E-15
  0.8874678E-01 -0.5447336E-01 -0.4982014E-01   0.0000000E+00 -0.1000000E+01 -0.2923284E-15
  0.1004465E+00 -0.5447336E-01 -0.1638704E-01   0.0000000E+00 -0.1000000E+01 -0.2923284E-15
           4
  0.8874678E-01  0.5447336E-01  0.4982014E-01   0.9847425E+00  0.2220266E-16  0.1740178E+00
  0.8874678E-01 -0.5447336E-01  0.4982014E-01   0.9847425E+00  0.2220266E-16  0.1740178E+00
  0.1004465E+00 -0.5447336E-01 -0.1638704E-01   0.9847425E+00  0.2220266E-16  0.1740178E+00
  0.1004465E+00  0.5447336E-01 -0.1638704E-01   0.9847425E+00  0.2220266E-16  0.1740178E+00
           4
 -0.1004465E+00  0.5447336E-01  0.1638704E-01  -0.9847425E+00  0.1480177E-16 -0.1740178E+00
 -0.8874678E-01  0.5447336E-01 -0.4982014E-01  -0.9847425E+00  0.1480177E-16 -0.1740178E+00
 -0.8874678E-01 -0.5447336E-01 -0.4982014E-01  -0.9847425E+00  0.1480177E-16 -0.1740178E+00
 -0.1004465E+00 -0.5447336E-01  0.1638704E-01  -0.9847425E+00  0.1480177E-16 -0.1740178E+00
           6
  0.1004465E+00  0.5447336E-01 -0.1638704E-01  -0.0000000E+00  0.1000000E+01  0.2923284E-15
  0.8874678E-01  0.5447336E-01 -0.4982014E-01  -0.0000000E+00  0.1000000E+01  0.2923284E-15
 -0.8874678E-01  0.5447336E-01 -0.4982014E-01  -0.0000000E+00  0.1000000E+01  0.2923284E-15
 -0.1004465E+00  0.5447336E-01  0.1638704E-01  -0.0000000E+00  0.1000000E+01  0.2923284E-15
 -0.8874678E-01  0.5447336E-01  0.4982014E-01  -0.0000000E+00  0.1000000E+01  0.2923284E-15
  0.8874678E-01  0.5447336E-01  0.4982014E-01  -0.0000000E+00  0.1000000E+01  0.2923284E-15
           4
 -0.8874678E-01 -0.5447336E-01  0.4982014E-01  -0.0000000E+00 -0.0000000E+00  0.1000000E+01
  0.8874678E-01 -0.5447336E-01  0.4982014E-01  -0.0000000E+00 -0.0000000E+00  0.1000000E+01
  0.8874678E-01  0.5447336E-01  0.4982014E-01  -0.0000000E+00 -0.0000000E+00  0.1000000E+01
 -0.8874678E-01  0.5447336E-01  0.4982014E-01  -0.0000000E+00 -0.0000000E+00  0.1000000E+01
           4
 -0.1004465E+00  0.5447336E-01  0.1638704E-01  -0.9438746E+00 -0.0000000E+00  0.3303039E+00
 -0.1004465E+00 -0.5447336E-01  0.1638704E-01  -0.9438746E+00 -0.0000000E+00  0.3303039E+00
 -0.8874678E-01 -0.5447336E-01  0.4982014E-01  -0.9438746E+00 -0.0000000E+00  0.3303039E+00
 -0.8874678E-01  0.5447336E-01  0.4982014E-01  -0.9438746E+00 -0.0000000E+00  0.3303039E+00
 BRILLOUIN-ZONE-CONVCELL_END
 ATOMS
   19    0.0000000000    4.5276085460    0.0000000000    0.0000000000    0.0004495800    0.0000000000
   19    2.6427998810    0.0393688990    0.0000000000    0.0000000000   -0.0004856300    0.0000000000
   12   -0.8867597870    0.0331233160    5.0180506310    0.0000000000   -0.0006330000    0.0000000000
   12   -0.8867597870    3.0720893000    5.0180506310    0.0000000000    0.0009588100    0.0000000000
   12   -0.8867597870    6.0755920580    5.0180506310    0.0000000000    0.0000454400    0.0000000000
   12    1.7560400950    7.6409123880    5.0180506310    0.0000000000   -0.0002604500    0.0000000000
   12    1.7560400950    1.6075946130    5.0180506310    0.0000000000   -0.0006835400    0.0000000000
   26    1.7560400950    4.5753784580    5.0180506310    0.0000000000    0.0000150100    0.0000000000
   14    0.0394175070    1.5165376150    2.2370327660    0.0000933700    0.0000456700   -0.0000336000
   14    3.4726625770    1.5165376150    7.7990686470   -0.0000933700    0.0000456700    0.0000336000
   14    3.5713077820    7.6555770850    7.7391150630    0.0002012300   -0.0003085600    0.0001156100
   14   -0.0592275920    7.6555770850    2.2969861990   -0.0002012300   -0.0003085600   -0.0001156100
   14    2.5785109720    6.1080442610    2.2687842000   -0.0003927400    0.0000357500    0.0003111800
   14    0.9335691650    6.1080442610    7.7673173640    0.0003927400    0.0000357500   -0.0003111800
   13    0.8325615250    3.0560862560    7.7855368900   -0.0000242500   -0.0000903900   -0.0007067900
   13    2.6795185060    3.0560862560    2.2505643720    0.0000242500   -0.0000903900    0.0007067900
    8   -0.0174931270    1.5061785090    3.8679019640    0.0000373100    0.0001804600   -0.0003545600
    8    3.5295732120    1.5061785090    6.1681989970   -0.0000373100    0.0001804600    0.0003545600
    8    3.5413863820    7.6364580870    6.1221392280    0.0002146500    0.0002209300    0.0005019000
    8   -0.0293061920    7.6364580870    3.9139620350   -0.0002146500    0.0002209300   -0.0005019000
    8    2.6267075340    6.1192040050    3.8971409220   -0.0001539900    0.0002578300    0.0002698500
    8    0.8853727080    6.1192040050    6.1389600400    0.0001539900    0.0002578300   -0.0002698500
    8    0.8578311810    3.0995224540    6.0496899880    0.0000575000   -0.0000694300   -0.0005152500
    8    2.6542490090    3.0995224540    3.9864112750   -0.0000575000   -0.0000694300    0.0005152500
    8    1.5204691930    1.8594996810    1.6610360250    0.0001247800   -0.0002293700   -0.0001379000
    8    1.9916110240    1.8594996810    8.3750650870   -0.0001247800   -0.0002293700    0.0001379000
    8    4.9561035820    9.1531909540    1.6820130340   -0.0002068200   -0.0000412100    0.0005652400
    8   -1.4440234190    9.1531909540    8.3540883800    0.0002068200   -0.0000412100   -0.0005652400
    8    2.1252603230    7.1266874650    8.3400848670    0.0002026000    0.0002328700    0.0000996300
    8    1.3868198660    7.1266874650    1.6960163960   -0.0002026000    0.0002328700   -0.0000996300
    8    4.0211234390    6.7053449600    1.6823491220   -0.0003892100    0.0001879900    0.0002908600
    8   -0.5090433020    6.7053449600    8.3537524420    0.0003892100    0.0001879900   -0.0002908600
    8    2.3099469500    4.6630531570    1.5986910560    0.0000062800    0.0002920900    0.0004337400
    8    1.2021332400    4.6630531570    8.4374102070   -0.0000062800    0.0002920900   -0.0004337400
    8   -0.7297014030    2.5482088000    8.4317965920    0.0000782800   -0.0002265400   -0.0000424200
    8    4.2417815130    2.5482088000    1.6043046710   -0.0000782800   -0.0002265400    0.0000424200
    8    0.0366573140    4.6087100780    3.9686977680    0.0000073600   -0.0005074100    0.0007326000
    8    3.4754227710    4.6087100780    6.0674031940   -0.0000073600   -0.0005074100   -0.0007326000
    8    2.6335552640    9.1758210500    3.9862664160    0.0001195900    0.0003167700    0.0005271800
    8    0.8785249250    9.1758210500    6.0498348470   -0.0001195900    0.0003167700   -0.0005271800
    1    0.1453018760    4.5174163310    3.0110878780    0.0006602100   -0.0002333000    0.0005564600
    1    3.3667782710    4.5174163310    7.0250133850   -0.0006602100   -0.0002333000   -0.0005564600
    1    2.6109472590    0.1258635510    3.0288841670   -0.0001944000    0.0002327300   -0.0000621100
    1    0.9011329840    0.1258635510    7.0072167950    0.0001944000    0.0002327300    0.0000621100
   19   -1.7735195730    4.5276085460   10.0361012630    0.0000000000    0.0004495800    0.0000000000
   19    0.8692803080    0.0393688990   10.0361012630    0.0000000000   -0.0004856300    0.0000000000
   19    5.2855997630    4.5276085460    0.0000000000    0.0000000000    0.0004495800    0.0000000000
   12    4.3988399760    0.0331233160    5.0180506310    0.0000000000   -0.0006330000    0.0000000000
   12    4.3988399760    3.0720893000    5.0180506310    0.0000000000    0.0009588100    0.0000000000
   12    4.3988399760    6.0755920580    5.0180506310    0.0000000000    0.0000454400    0.0000000000
   19    3.5120801900    4.5276085460   10.0361012630    0.0000000000    0.0004495800    0.0000000000
 FRAMES
1      0.0000000000    0.0000000000    0.0000000000      5.2855997630    0.0000000000    0.0000000000
1      0.0000000000    0.0000000000    0.0000000000      0.0000000000    9.1787981240    0.0000000000
1      0.0000000000    0.0000000000    0.0000000000     -1.7735195730    0.0000000000   10.0361012630
1     -1.7735195730    0.0000000000   10.0361012630      3.5120801900    0.0000000000   10.0361012630
1     -1.7735195730    0.0000000000   10.0361012630     -1.7735195730    9.1787981240   10.0361012630
1      0.0000000000    9.1787981240    0.0000000000      5.2855997630    9.1787981240    0.0000000000
1      0.0000000000    9.1787981240    0.0000000000     -1.7735195730    9.1787981240   10.0361012630
1     -1.7735195730    9.1787981240   10.0361012630      3.5120801900    9.1787981240   10.0361012630
1      5.2855997630    0.0000000000    0.0000000000      5.2855997630    9.1787981240    0.0000000000
1      5.2855997630    0.0000000000    0.0000000000      3.5120801900    0.0000000000   10.0361012630
1      3.5120801900    0.0000000000   10.0361012630      3.5120801900    9.1787981240   10.0361012630
1      5.2855997630    9.1787981240    0.0000000000      3.5120801900    9.1787981240   10.0361012630
