 INFO
nunit      1    1    1
unit   cell
celltype   primcell
shape   parapipedal
 END_INFO
 DIM-GROUP
           3           1
 PRIMVEC
    5.2989900630    0.0000000000    0.0000000000
    0.0000000000    9.1953692500    0.0000000000
   -1.8126838200    0.0000000000   10.0463340640
 CONVVEC
    5.2989900630    0.0000000000    0.0000000000
    0.0000000000    9.1953692500    0.0000000000
   -1.8126838200    0.0000000000   10.0463340640
 PRIMCOORD
          44           1
 19      0.0000000000     4.5304621290     0.0000000000     0.0000000000     0.0000996000     0.0000000000
 19      2.6494950310     0.0422608420     0.0000000000     0.0000000000     0.0000669300     0.0000000000
 12     -0.9063419100     0.0331643960     5.0231670320     0.0000000000    -0.0001019400     0.0000000000
 12     -0.9063419100     3.0794037200     5.0231670320     0.0000000000    -0.0001107900     0.0000000000
 12     -0.9063419100     6.0876986350     5.0231670320     0.0000000000    -0.0002528300     0.0000000000
 12      1.7431531220     7.6568576310     5.0231670320     0.0000000000    -0.0006943600     0.0000000000
 12      1.7431531220     1.6098586580     5.0231670320     0.0000000000     0.0003333100     0.0000000000
 14      0.0265773840     1.5196861410     2.2442879000    -0.0002462800    -0.0002694800    -0.0000769900
 14      3.4597287310     1.5196861410     7.8020464660     0.0002462800    -0.0002694800     0.0000769900
 14      3.5645899020     7.6681909490     7.7433443270     0.0001072800    -0.0000096500     0.0000845500
 14     -0.0782836590     7.6681909490     2.3029897380    -0.0001072800    -0.0000096500    -0.0000845500
 14      2.5660931940     6.1199067480     2.2755174790    -0.0000421000     0.0003864400     0.0000866000
 14      0.9202130770     6.1199067480     7.7708164350     0.0000421000     0.0003864400    -0.0000866000
 13      0.8127233120     3.0612053760     7.7884614950     0.0001028200    -0.0001960700    -0.0002740600
 13      2.6735829310     3.0612053760     2.2578725700    -0.0001028200    -0.0001960700     0.0002740600
  8     -0.0325992840     1.5101452160     3.8750592870    -0.0000507000    -0.0000154600    -0.0000297800
  8      3.5189053160     1.5101452160     6.1712750690     0.0000507000    -0.0000154600     0.0000297800
  8      3.5337337390     7.6493192520     6.1262968210    -0.0000600900     0.0002439800    -0.0000894000
  8     -0.0474274960     7.6493192520     3.9200372440     0.0000600900     0.0002439800     0.0000894000
  8      2.6144476390     6.1318856830     3.9040609130     0.0000541800     0.0001121900     0.0002853000
  8      0.8718586040     6.1318856830     6.1422731510    -0.0000541800     0.0001121900    -0.0002853000
  8      0.8426659170     3.1054655030     6.0525708030    -0.0002646000    -0.0004242400    -0.0002375900
  8      2.6436403270     3.1054655030     3.9937632620     0.0002646000    -0.0004242400     0.0002375900
  8      1.5065517170     1.8702017540     1.6676937680    -0.0001599200    -0.0002216100    -0.0002214800
  8      1.9797545810     1.8702017540     8.3786399950     0.0001599200    -0.0002216100     0.0002214800
  8      4.9626194660     9.1700603800     1.6928329410    -0.0000001600    -0.0001300400    -0.0006583200
  8     -1.4763131960     9.1700603800     8.3535009730     0.0000001600    -0.0001300400     0.0006583200
  8      2.1221666410     7.1276208360     8.3451042180     0.0002505100    -0.0001246700    -0.0001118700
  8      1.3641396020     7.1276208360     1.7012298460    -0.0002505100    -0.0001246700     0.0001118700
  8      4.0041942710     6.7307616840     1.6896184830    -0.0000919800     0.0000171600     0.0000673000
  8     -0.5178880280     6.7307616840     8.3567155820     0.0000919800     0.0000171600    -0.0000673000
  8      2.3120937600     4.6713080010     1.6067921270    -0.0003430100     0.0002123000    -0.0000262100
  8      1.1742122970     4.6713080010     8.4395420880     0.0003430100     0.0002123000     0.0000262100
  8     -0.7480567690     2.5443163450     8.4342172290     0.0000023400     0.0002389000     0.0003109200
  8      4.2343630910     2.5443163450     1.6121168350    -0.0000023400     0.0002389000    -0.0003109200
  8      0.0210840590     4.6160528980     3.9782032560    -0.0001229900    -0.0000694600    -0.0000606600
  8      3.4652222640     4.6160528980     6.0681308090     0.0001229900    -0.0000694600     0.0000606600
  8      2.6238193430     9.1939850400     3.9938593520     0.0000628300     0.0000668200    -0.0001322400
  8      0.8624869550     9.1939850400     6.0524744110    -0.0000628300     0.0000668200     0.0001322400
  1      0.1377310220     4.5194658160     3.0220941210     0.0000433700     0.0001100000     0.0003167400
  1      3.3485753800     4.5194658160     7.0242399440    -0.0000433700     0.0001100000    -0.0003167400
  1      2.5994582380     0.1282260830     3.0364498130    -0.0000564800     0.0001037700     0.0000716000
  1      0.8868480050     0.1282260830     7.0098842520     0.0000564800     0.0001037700    -0.0000716000
 26      1.7431531220     4.5827645950     5.0231670320     0.0000000000     0.0005983500     0.0000000000
 CONVCOORD
          44           1
 19      0.0000000000     4.5304621290     0.0000000000
 19      2.6494950310     0.0422608420     0.0000000000
 12     -0.9063419100     0.0331643960     5.0231670320
 12     -0.9063419100     3.0794037200     5.0231670320
 12     -0.9063419100     6.0876986350     5.0231670320
 12      1.7431531220     7.6568576310     5.0231670320
 12      1.7431531220     1.6098586580     5.0231670320
 14      0.0265773840     1.5196861410     2.2442879000
 14      3.4597287310     1.5196861410     7.8020464660
 14      3.5645899020     7.6681909490     7.7433443270
 14     -0.0782836590     7.6681909490     2.3029897380
 14      2.5660931940     6.1199067480     2.2755174790
 14      0.9202130770     6.1199067480     7.7708164350
 13      0.8127233120     3.0612053760     7.7884614950
 13      2.6735829310     3.0612053760     2.2578725700
  8     -0.0325992840     1.5101452160     3.8750592870
  8      3.5189053160     1.5101452160     6.1712750690
  8      3.5337337390     7.6493192520     6.1262968210
  8     -0.0474274960     7.6493192520     3.9200372440
  8      2.6144476390     6.1318856830     3.9040609130
  8      0.8718586040     6.1318856830     6.1422731510
  8      0.8426659170     3.1054655030     6.0525708030
  8      2.6436403270     3.1054655030     3.9937632620
  8      1.5065517170     1.8702017540     1.6676937680
  8      1.9797545810     1.8702017540     8.3786399950
  8      4.9626194660     9.1700603800     1.6928329410
  8     -1.4763131960     9.1700603800     8.3535009730
  8      2.1221666410     7.1276208360     8.3451042180
  8      1.3641396020     7.1276208360     1.7012298460
  8      4.0041942710     6.7307616840     1.6896184830
  8     -0.5178880280     6.7307616840     8.3567155820
  8      2.3120937600     4.6713080010     1.6067921270
  8      1.1742122970     4.6713080010     8.4395420880
  8     -0.7480567690     2.5443163450     8.4342172290
  8      4.2343630910     2.5443163450     1.6121168350
  8      0.0210840590     4.6160528980     3.9782032560
  8      3.4652222640     4.6160528980     6.0681308090
  8      2.6238193430     9.1939850400     3.9938593520
  8      0.8624869550     9.1939850400     6.0524744110
  1      0.1377310220     4.5194658160     3.0220941210
  1      3.3485753800     4.5194658160     7.0242399440
  1      2.5994582380     0.1282260830     3.0364498130
  1      0.8868480050     0.1282260830     7.0098842520
 26      1.7431531220     4.5827645950     5.0231670320
 RECIP-PRIMVEC
    0.1887152057   -0.0000000000    0.0340503310

    0.0000000000    0.1087503909   -0.0000000000

    0.0000000000    0.0000000000    0.0995387963

 RECIP-CONVVEC
    0.1887152057   -0.0000000000    0.0340503310

    0.0000000000    0.1087503909   -0.0000000000

    0.0000000000    0.0000000000    0.0995387963

 WIGNER-SEITZ-PRIMCELL
           4
 -0.2649495E+01  0.4597685E+01 -0.4708646E+01  -0.3278435E+00 -0.1009766E-15 -0.9447320E+00
 -0.8368112E+00  0.4597685E+01 -0.5337688E+01  -0.3278435E+00 -0.1009766E-15 -0.9447320E+00
 -0.8368112E+00 -0.4597685E+01 -0.5337688E+01  -0.3278435E+00 -0.1009766E-15 -0.9447320E+00
 -0.2649495E+01 -0.4597685E+01 -0.4708646E+01  -0.3278435E+00 -0.1009766E-15 -0.9447320E+00
           4
 -0.2649495E+01  0.4597685E+01 -0.4708646E+01  -0.1000000E+01  0.4829488E-16  0.4554862E-32
 -0.2649495E+01 -0.4597685E+01 -0.4708646E+01  -0.1000000E+01  0.4829488E-16  0.4554862E-32
 -0.2649495E+01 -0.4597685E+01  0.4708646E+01  -0.1000000E+01  0.4829488E-16  0.4554862E-32
 -0.2649495E+01  0.4597685E+01  0.4708646E+01  -0.1000000E+01  0.4829488E-16  0.4554862E-32
           6
  0.2649495E+01 -0.4597685E+01  0.4708646E+01  -0.0000000E+00 -0.1000000E+01  0.1065828E-14
  0.8368112E+00 -0.4597685E+01  0.5337688E+01  -0.0000000E+00 -0.1000000E+01  0.1065828E-14
 -0.2649495E+01 -0.4597685E+01  0.4708646E+01  -0.0000000E+00 -0.1000000E+01  0.1065828E-14
 -0.2649495E+01 -0.4597685E+01 -0.4708646E+01  -0.0000000E+00 -0.1000000E+01  0.1065828E-14
 -0.8368112E+00 -0.4597685E+01 -0.5337688E+01  -0.0000000E+00 -0.1000000E+01  0.1065828E-14
  0.2649495E+01 -0.4597685E+01 -0.4708646E+01  -0.0000000E+00 -0.1000000E+01  0.1065828E-14
           4
  0.2649495E+01 -0.4597685E+01 -0.4708646E+01   0.1775651E+00 -0.2181216E-15 -0.9841091E+00
 -0.8368112E+00 -0.4597685E+01 -0.5337688E+01   0.1775651E+00 -0.2181216E-15 -0.9841091E+00
 -0.8368112E+00  0.4597685E+01 -0.5337688E+01   0.1775651E+00 -0.2181216E-15 -0.9841091E+00
  0.2649495E+01  0.4597685E+01 -0.4708646E+01   0.1775651E+00 -0.2181216E-15 -0.9841091E+00
           4
 -0.2649495E+01  0.4597685E+01  0.4708646E+01  -0.1775651E+00 -0.0000000E+00  0.9841091E+00
 -0.2649495E+01 -0.4597685E+01  0.4708646E+01  -0.1775651E+00 -0.0000000E+00  0.9841091E+00
  0.8368112E+00 -0.4597685E+01  0.5337688E+01  -0.1775651E+00 -0.0000000E+00  0.9841091E+00
  0.8368112E+00  0.4597685E+01  0.5337688E+01  -0.1775651E+00 -0.0000000E+00  0.9841091E+00
           6
  0.2649495E+01  0.4597685E+01 -0.4708646E+01   0.0000000E+00  0.1000000E+01  0.1065828E-14
 -0.8368112E+00  0.4597685E+01 -0.5337688E+01   0.0000000E+00  0.1000000E+01  0.1065828E-14
 -0.2649495E+01  0.4597685E+01 -0.4708646E+01   0.0000000E+00  0.1000000E+01  0.1065828E-14
 -0.2649495E+01  0.4597685E+01  0.4708646E+01   0.0000000E+00  0.1000000E+01  0.1065828E-14
  0.8368112E+00  0.4597685E+01  0.5337688E+01   0.0000000E+00  0.1000000E+01  0.1065828E-14
  0.2649495E+01  0.4597685E+01  0.4708646E+01   0.0000000E+00  0.1000000E+01  0.1065828E-14
           4
  0.2649495E+01  0.4597685E+01  0.4708646E+01   0.1000000E+01 -0.4829488E-16  0.0000000E+00
  0.2649495E+01 -0.4597685E+01  0.4708646E+01   0.1000000E+01 -0.4829488E-16  0.0000000E+00
  0.2649495E+01 -0.4597685E+01 -0.4708646E+01   0.1000000E+01 -0.4829488E-16  0.0000000E+00
  0.2649495E+01  0.4597685E+01 -0.4708646E+01   0.1000000E+01 -0.4829488E-16  0.0000000E+00
           4
  0.8368112E+00 -0.4597685E+01  0.5337688E+01   0.3278435E+00  0.3334111E-16  0.9447320E+00
  0.2649495E+01 -0.4597685E+01  0.4708646E+01   0.3278435E+00  0.3334111E-16  0.9447320E+00
  0.2649495E+01  0.4597685E+01  0.4708646E+01   0.3278435E+00  0.3334111E-16  0.9447320E+00
  0.8368112E+00  0.4597685E+01  0.5337688E+01   0.3278435E+00  0.3334111E-16  0.9447320E+00
 WIGNER-SEITZ-PRIMCELL_END
 WIGNER-SEITZ-CONVCELL
           4
 -0.2649495E+01  0.4597685E+01 -0.4708646E+01  -0.3278435E+00 -0.1009766E-15 -0.9447320E+00
 -0.8368112E+00  0.4597685E+01 -0.5337688E+01  -0.3278435E+00 -0.1009766E-15 -0.9447320E+00
 -0.8368112E+00 -0.4597685E+01 -0.5337688E+01  -0.3278435E+00 -0.1009766E-15 -0.9447320E+00
 -0.2649495E+01 -0.4597685E+01 -0.4708646E+01  -0.3278435E+00 -0.1009766E-15 -0.9447320E+00
           4
 -0.2649495E+01  0.4597685E+01 -0.4708646E+01  -0.1000000E+01  0.4829488E-16  0.4554862E-32
 -0.2649495E+01 -0.4597685E+01 -0.4708646E+01  -0.1000000E+01  0.4829488E-16  0.4554862E-32
 -0.2649495E+01 -0.4597685E+01  0.4708646E+01  -0.1000000E+01  0.4829488E-16  0.4554862E-32
 -0.2649495E+01  0.4597685E+01  0.4708646E+01  -0.1000000E+01  0.4829488E-16  0.4554862E-32
           6
  0.2649495E+01 -0.4597685E+01  0.4708646E+01  -0.0000000E+00 -0.1000000E+01  0.1065828E-14
  0.8368112E+00 -0.4597685E+01  0.5337688E+01  -0.0000000E+00 -0.1000000E+01  0.1065828E-14
 -0.2649495E+01 -0.4597685E+01  0.4708646E+01  -0.0000000E+00 -0.1000000E+01  0.1065828E-14
 -0.2649495E+01 -0.4597685E+01 -0.4708646E+01  -0.0000000E+00 -0.1000000E+01  0.1065828E-14
 -0.8368112E+00 -0.4597685E+01 -0.5337688E+01  -0.0000000E+00 -0.1000000E+01  0.1065828E-14
  0.2649495E+01 -0.4597685E+01 -0.4708646E+01  -0.0000000E+00 -0.1000000E+01  0.1065828E-14
           4
  0.2649495E+01 -0.4597685E+01 -0.4708646E+01   0.1775651E+00 -0.2181216E-15 -0.9841091E+00
 -0.8368112E+00 -0.4597685E+01 -0.5337688E+01   0.1775651E+00 -0.2181216E-15 -0.9841091E+00
 -0.8368112E+00  0.4597685E+01 -0.5337688E+01   0.1775651E+00 -0.2181216E-15 -0.9841091E+00
  0.2649495E+01  0.4597685E+01 -0.4708646E+01   0.1775651E+00 -0.2181216E-15 -0.9841091E+00
           4
 -0.2649495E+01  0.4597685E+01  0.4708646E+01  -0.1775651E+00 -0.0000000E+00  0.9841091E+00
 -0.2649495E+01 -0.4597685E+01  0.4708646E+01  -0.1775651E+00 -0.0000000E+00  0.9841091E+00
  0.8368112E+00 -0.4597685E+01  0.5337688E+01  -0.1775651E+00 -0.0000000E+00  0.9841091E+00
  0.8368112E+00  0.4597685E+01  0.5337688E+01  -0.1775651E+00 -0.0000000E+00  0.9841091E+00
           6
  0.2649495E+01  0.4597685E+01 -0.4708646E+01   0.0000000E+00  0.1000000E+01  0.1065828E-14
 -0.8368112E+00  0.4597685E+01 -0.5337688E+01   0.0000000E+00  0.1000000E+01  0.1065828E-14
 -0.2649495E+01  0.4597685E+01 -0.4708646E+01   0.0000000E+00  0.1000000E+01  0.1065828E-14
 -0.2649495E+01  0.4597685E+01  0.4708646E+01   0.0000000E+00  0.1000000E+01  0.1065828E-14
  0.8368112E+00  0.4597685E+01  0.5337688E+01   0.0000000E+00  0.1000000E+01  0.1065828E-14
  0.2649495E+01  0.4597685E+01  0.4708646E+01   0.0000000E+00  0.1000000E+01  0.1065828E-14
           4
  0.2649495E+01  0.4597685E+01  0.4708646E+01   0.1000000E+01 -0.4829488E-16  0.0000000E+00
  0.2649495E+01 -0.4597685E+01  0.4708646E+01   0.1000000E+01 -0.4829488E-16  0.0000000E+00
  0.2649495E+01 -0.4597685E+01 -0.4708646E+01   0.1000000E+01 -0.4829488E-16  0.0000000E+00
  0.2649495E+01  0.4597685E+01 -0.4708646E+01   0.1000000E+01 -0.4829488E-16  0.0000000E+00
           4
  0.8368112E+00 -0.4597685E+01  0.5337688E+01   0.3278435E+00  0.3334111E-16  0.9447320E+00
  0.2649495E+01 -0.4597685E+01  0.4708646E+01   0.3278435E+00  0.3334111E-16  0.9447320E+00
  0.2649495E+01  0.4597685E+01  0.4708646E+01   0.3278435E+00  0.3334111E-16  0.9447320E+00
  0.8368112E+00  0.4597685E+01  0.5337688E+01   0.3278435E+00  0.3334111E-16  0.9447320E+00
 WIGNER-SEITZ-CONVCELL_END
 BRILLOUIN-ZONE-PRIMCELL
           4
  0.1002657E+00  0.5437520E-01 -0.1571907E-01   0.9447320E+00  0.5532186E-16 -0.3278435E+00
  0.1002657E+00 -0.5437520E-01 -0.1571907E-01   0.9447320E+00  0.5532186E-16 -0.3278435E+00
  0.8844948E-01 -0.5437520E-01 -0.4976940E-01   0.9447320E+00  0.5532186E-16 -0.3278435E+00
  0.8844948E-01  0.5437520E-01 -0.4976940E-01   0.9447320E+00  0.5532186E-16 -0.3278435E+00
           4
 -0.8844948E-01  0.5437520E-01 -0.4976940E-01   0.0000000E+00 -0.5426985E-16 -0.1000000E+01
  0.8844948E-01  0.5437520E-01 -0.4976940E-01   0.0000000E+00 -0.5426985E-16 -0.1000000E+01
  0.8844948E-01 -0.5437520E-01 -0.4976940E-01   0.0000000E+00 -0.5426985E-16 -0.1000000E+01
 -0.8844948E-01 -0.5437520E-01 -0.4976940E-01   0.0000000E+00 -0.5426985E-16 -0.1000000E+01
           6
  0.8844948E-01 -0.5437520E-01  0.4976940E-01   0.0000000E+00 -0.1000000E+01  0.2879941E-15
 -0.8844948E-01 -0.5437520E-01  0.4976940E-01   0.0000000E+00 -0.1000000E+01  0.2879941E-15
 -0.1002657E+00 -0.5437520E-01  0.1571907E-01   0.0000000E+00 -0.1000000E+01  0.2879941E-15
 -0.8844948E-01 -0.5437520E-01 -0.4976940E-01   0.0000000E+00 -0.1000000E+01  0.2879941E-15
  0.8844948E-01 -0.5437520E-01 -0.4976940E-01   0.0000000E+00 -0.1000000E+01  0.2879941E-15
  0.1002657E+00 -0.5437520E-01 -0.1571907E-01   0.0000000E+00 -0.1000000E+01  0.2879941E-15
           4
  0.8844948E-01  0.5437520E-01  0.4976940E-01   0.9841091E+00 -0.3370857E-15  0.1775651E+00
  0.8844948E-01 -0.5437520E-01  0.4976940E-01   0.9841091E+00 -0.3370857E-15  0.1775651E+00
  0.1002657E+00 -0.5437520E-01 -0.1571907E-01   0.9841091E+00 -0.3370857E-15  0.1775651E+00
  0.1002657E+00  0.5437520E-01 -0.1571907E-01   0.9841091E+00 -0.3370857E-15  0.1775651E+00
           4
 -0.8844948E-01  0.5437520E-01 -0.4976940E-01  -0.9841091E+00 -0.1498159E-15 -0.1775651E+00
 -0.8844948E-01 -0.5437520E-01 -0.4976940E-01  -0.9841091E+00 -0.1498159E-15 -0.1775651E+00
 -0.1002657E+00 -0.5437520E-01  0.1571907E-01  -0.9841091E+00 -0.1498159E-15 -0.1775651E+00
 -0.1002657E+00  0.5437520E-01  0.1571907E-01  -0.9841091E+00 -0.1498159E-15 -0.1775651E+00
           6
  0.1002657E+00  0.5437520E-01 -0.1571907E-01  -0.0000000E+00  0.1000000E+01  0.2879941E-15
  0.8844948E-01  0.5437520E-01 -0.4976940E-01  -0.0000000E+00  0.1000000E+01  0.2879941E-15
 -0.8844948E-01  0.5437520E-01 -0.4976940E-01  -0.0000000E+00  0.1000000E+01  0.2879941E-15
 -0.1002657E+00  0.5437520E-01  0.1571907E-01  -0.0000000E+00  0.1000000E+01  0.2879941E-15
 -0.8844948E-01  0.5437520E-01  0.4976940E-01  -0.0000000E+00  0.1000000E+01  0.2879941E-15
  0.8844948E-01  0.5437520E-01  0.4976940E-01  -0.0000000E+00  0.1000000E+01  0.2879941E-15
           4
  0.8844948E-01 -0.5437520E-01  0.4976940E-01  -0.0000000E+00 -0.0000000E+00  0.1000000E+01
  0.8844948E-01  0.5437520E-01  0.4976940E-01  -0.0000000E+00 -0.0000000E+00  0.1000000E+01
 -0.8844948E-01  0.5437520E-01  0.4976940E-01  -0.0000000E+00 -0.0000000E+00  0.1000000E+01
 -0.8844948E-01 -0.5437520E-01  0.4976940E-01  -0.0000000E+00 -0.0000000E+00  0.1000000E+01
           4
 -0.1002657E+00  0.5437520E-01  0.1571907E-01  -0.9447320E+00 -0.1383046E-15  0.3278435E+00
 -0.1002657E+00 -0.5437520E-01  0.1571907E-01  -0.9447320E+00 -0.1383046E-15  0.3278435E+00
 -0.8844948E-01 -0.5437520E-01  0.4976940E-01  -0.9447320E+00 -0.1383046E-15  0.3278435E+00
 -0.8844948E-01  0.5437520E-01  0.4976940E-01  -0.9447320E+00 -0.1383046E-15  0.3278435E+00
 BRILLOUIN-ZONE-PRIMCELL_END
 BRILLOUIN-ZONE-CONVCELL
           4
  0.1002657E+00  0.5437520E-01 -0.1571907E-01   0.9447320E+00  0.5532186E-16 -0.3278435E+00
  0.1002657E+00 -0.5437520E-01 -0.1571907E-01   0.9447320E+00  0.5532186E-16 -0.3278435E+00
  0.8844948E-01 -0.5437520E-01 -0.4976940E-01   0.9447320E+00  0.5532186E-16 -0.3278435E+00
  0.8844948E-01  0.5437520E-01 -0.4976940E-01   0.9447320E+00  0.5532186E-16 -0.3278435E+00
           4
 -0.8844948E-01  0.5437520E-01 -0.4976940E-01   0.0000000E+00 -0.5426985E-16 -0.1000000E+01
  0.8844948E-01  0.5437520E-01 -0.4976940E-01   0.0000000E+00 -0.5426985E-16 -0.1000000E+01
  0.8844948E-01 -0.5437520E-01 -0.4976940E-01   0.0000000E+00 -0.5426985E-16 -0.1000000E+01
 -0.8844948E-01 -0.5437520E-01 -0.4976940E-01   0.0000000E+00 -0.5426985E-16 -0.1000000E+01
           6
  0.8844948E-01 -0.5437520E-01  0.4976940E-01   0.0000000E+00 -0.1000000E+01  0.2879941E-15
 -0.8844948E-01 -0.5437520E-01  0.4976940E-01   0.0000000E+00 -0.1000000E+01  0.2879941E-15
 -0.1002657E+00 -0.5437520E-01  0.1571907E-01   0.0000000E+00 -0.1000000E+01  0.2879941E-15
 -0.8844948E-01 -0.5437520E-01 -0.4976940E-01   0.0000000E+00 -0.1000000E+01  0.2879941E-15
  0.8844948E-01 -0.5437520E-01 -0.4976940E-01   0.0000000E+00 -0.1000000E+01  0.2879941E-15
  0.1002657E+00 -0.5437520E-01 -0.1571907E-01   0.0000000E+00 -0.1000000E+01  0.2879941E-15
           4
  0.8844948E-01  0.5437520E-01  0.4976940E-01   0.9841091E+00 -0.3370857E-15  0.1775651E+00
  0.8844948E-01 -0.5437520E-01  0.4976940E-01   0.9841091E+00 -0.3370857E-15  0.1775651E+00
  0.1002657E+00 -0.5437520E-01 -0.1571907E-01   0.9841091E+00 -0.3370857E-15  0.1775651E+00
  0.1002657E+00  0.5437520E-01 -0.1571907E-01   0.9841091E+00 -0.3370857E-15  0.1775651E+00
           4
 -0.8844948E-01  0.5437520E-01 -0.4976940E-01  -0.9841091E+00 -0.1498159E-15 -0.1775651E+00
 -0.8844948E-01 -0.5437520E-01 -0.4976940E-01  -0.9841091E+00 -0.1498159E-15 -0.1775651E+00
 -0.1002657E+00 -0.5437520E-01  0.1571907E-01  -0.9841091E+00 -0.1498159E-15 -0.1775651E+00
 -0.1002657E+00  0.5437520E-01  0.1571907E-01  -0.9841091E+00 -0.1498159E-15 -0.1775651E+00
           6
  0.1002657E+00  0.5437520E-01 -0.1571907E-01  -0.0000000E+00  0.1000000E+01  0.2879941E-15
  0.8844948E-01  0.5437520E-01 -0.4976940E-01  -0.0000000E+00  0.1000000E+01  0.2879941E-15
 -0.8844948E-01  0.5437520E-01 -0.4976940E-01  -0.0000000E+00  0.1000000E+01  0.2879941E-15
 -0.1002657E+00  0.5437520E-01  0.1571907E-01  -0.0000000E+00  0.1000000E+01  0.2879941E-15
 -0.8844948E-01  0.5437520E-01  0.4976940E-01  -0.0000000E+00  0.1000000E+01  0.2879941E-15
  0.8844948E-01  0.5437520E-01  0.4976940E-01  -0.0000000E+00  0.1000000E+01  0.2879941E-15
           4
  0.8844948E-01 -0.5437520E-01  0.4976940E-01  -0.0000000E+00 -0.0000000E+00  0.1000000E+01
  0.8844948E-01  0.5437520E-01  0.4976940E-01  -0.0000000E+00 -0.0000000E+00  0.1000000E+01
 -0.8844948E-01  0.5437520E-01  0.4976940E-01  -0.0000000E+00 -0.0000000E+00  0.1000000E+01
 -0.8844948E-01 -0.5437520E-01  0.4976940E-01  -0.0000000E+00 -0.0000000E+00  0.1000000E+01
           4
 -0.1002657E+00  0.5437520E-01  0.1571907E-01  -0.9447320E+00 -0.1383046E-15  0.3278435E+00
 -0.1002657E+00 -0.5437520E-01  0.1571907E-01  -0.9447320E+00 -0.1383046E-15  0.3278435E+00
 -0.8844948E-01 -0.5437520E-01  0.4976940E-01  -0.9447320E+00 -0.1383046E-15  0.3278435E+00
 -0.8844948E-01  0.5437520E-01  0.4976940E-01  -0.9447320E+00 -0.1383046E-15  0.3278435E+00
 BRILLOUIN-ZONE-CONVCELL_END
 ATOMS
   19    0.0000000000    4.5304621290    0.0000000000    0.0000000000    0.0000996000    0.0000000000
   19    2.6494950310    0.0422608420    0.0000000000    0.0000000000    0.0000669300    0.0000000000
   12   -0.9063419100    0.0331643960    5.0231670320    0.0000000000   -0.0001019400    0.0000000000
   12   -0.9063419100    3.0794037200    5.0231670320    0.0000000000   -0.0001107900    0.0000000000
   12   -0.9063419100    6.0876986350    5.0231670320    0.0000000000   -0.0002528300    0.0000000000
   12    1.7431531220    7.6568576310    5.0231670320    0.0000000000   -0.0006943600    0.0000000000
   12    1.7431531220    1.6098586580    5.0231670320    0.0000000000    0.0003333100    0.0000000000
   14    0.0265773840    1.5196861410    2.2442879000   -0.0002462800   -0.0002694800   -0.0000769900
   14    3.4597287310    1.5196861410    7.8020464660    0.0002462800   -0.0002694800    0.0000769900
   14    3.5645899020    7.6681909490    7.7433443270    0.0001072800   -0.0000096500    0.0000845500
   14   -0.0782836590    7.6681909490    2.3029897380   -0.0001072800   -0.0000096500   -0.0000845500
   14    2.5660931940    6.1199067480    2.2755174790   -0.0000421000    0.0003864400    0.0000866000
   14    0.9202130770    6.1199067480    7.7708164350    0.0000421000    0.0003864400   -0.0000866000
   13    0.8127233120    3.0612053760    7.7884614950    0.0001028200   -0.0001960700   -0.0002740600
   13    2.6735829310    3.0612053760    2.2578725700   -0.0001028200   -0.0001960700    0.0002740600
    8   -0.0325992840    1.5101452160    3.8750592870   -0.0000507000   -0.0000154600   -0.0000297800
    8    3.5189053160    1.5101452160    6.1712750690    0.0000507000   -0.0000154600    0.0000297800
    8    3.5337337390    7.6493192520    6.1262968210   -0.0000600900    0.0002439800   -0.0000894000
    8   -0.0474274960    7.6493192520    3.9200372440    0.0000600900    0.0002439800    0.0000894000
    8    2.6144476390    6.1318856830    3.9040609130    0.0000541800    0.0001121900    0.0002853000
    8    0.8718586040    6.1318856830    6.1422731510   -0.0000541800    0.0001121900   -0.0002853000
    8    0.8426659170    3.1054655030    6.0525708030   -0.0002646000   -0.0004242400   -0.0002375900
    8    2.6436403270    3.1054655030    3.9937632620    0.0002646000   -0.0004242400    0.0002375900
    8    1.5065517170    1.8702017540    1.6676937680   -0.0001599200   -0.0002216100   -0.0002214800
    8    1.9797545810    1.8702017540    8.3786399950    0.0001599200   -0.0002216100    0.0002214800
    8    4.9626194660    9.1700603800    1.6928329410   -0.0000001600   -0.0001300400   -0.0006583200
    8   -1.4763131960    9.1700603800    8.3535009730    0.0000001600   -0.0001300400    0.0006583200
    8    2.1221666410    7.1276208360    8.3451042180    0.0002505100   -0.0001246700   -0.0001118700
    8    1.3641396020    7.1276208360    1.7012298460   -0.0002505100   -0.0001246700    0.0001118700
    8    4.0041942710    6.7307616840    1.6896184830   -0.0000919800    0.0000171600    0.0000673000
    8   -0.5178880280    6.7307616840    8.3567155820    0.0000919800    0.0000171600   -0.0000673000
    8    2.3120937600    4.6713080010    1.6067921270   -0.0003430100    0.0002123000   -0.0000262100
    8    1.1742122970    4.6713080010    8.4395420880    0.0003430100    0.0002123000    0.0000262100
    8   -0.7480567690    2.5443163450    8.4342172290    0.0000023400    0.0002389000    0.0003109200
    8    4.2343630910    2.5443163450    1.6121168350   -0.0000023400    0.0002389000   -0.0003109200
    8    0.0210840590    4.6160528980    3.9782032560   -0.0001229900   -0.0000694600   -0.0000606600
    8    3.4652222640    4.6160528980    6.0681308090    0.0001229900   -0.0000694600    0.0000606600
    8    2.6238193430    9.1939850400    3.9938593520    0.0000628300    0.0000668200   -0.0001322400
    8    0.8624869550    9.1939850400    6.0524744110   -0.0000628300    0.0000668200    0.0001322400
    1    0.1377310220    4.5194658160    3.0220941210    0.0000433700    0.0001100000    0.0003167400
    1    3.3485753800    4.5194658160    7.0242399440   -0.0000433700    0.0001100000   -0.0003167400
    1    2.5994582380    0.1282260830    3.0364498130   -0.0000564800    0.0001037700    0.0000716000
    1    0.8868480050    0.1282260830    7.0098842520    0.0000564800    0.0001037700   -0.0000716000
   26    1.7431531220    4.5827645950    5.0231670320    0.0000000000    0.0005983500    0.0000000000
   19   -1.8126838200    4.5304621290   10.0463340640    0.0000000000    0.0000996000    0.0000000000
   19    0.8368112110    0.0422608420   10.0463340640    0.0000000000    0.0000669300    0.0000000000
   19    5.2989900630    4.5304621290    0.0000000000    0.0000000000    0.0000996000    0.0000000000
   12    4.3926481530    0.0331643960    5.0231670320    0.0000000000   -0.0001019400    0.0000000000
   12    4.3926481530    3.0794037200    5.0231670320    0.0000000000   -0.0001107900    0.0000000000
   12    4.3926481530    6.0876986350    5.0231670320    0.0000000000   -0.0002528300    0.0000000000
   19    3.4863062430    4.5304621290   10.0463340640    0.0000000000    0.0000996000    0.0000000000
 FRAMES
1      0.0000000000    0.0000000000    0.0000000000      5.2989900630    0.0000000000    0.0000000000
1      0.0000000000    0.0000000000    0.0000000000      0.0000000000    9.1953692500    0.0000000000
1      0.0000000000    0.0000000000    0.0000000000     -1.8126838200    0.0000000000   10.0463340640
1     -1.8126838200    0.0000000000   10.0463340640      3.4863062430    0.0000000000   10.0463340640
1     -1.8126838200    0.0000000000   10.0463340640     -1.8126838200    9.1953692500   10.0463340640
1      0.0000000000    9.1953692500    0.0000000000      5.2989900630    9.1953692500    0.0000000000
1      0.0000000000    9.1953692500    0.0000000000     -1.8126838200    9.1953692500   10.0463340640
1     -1.8126838200    9.1953692500   10.0463340640      3.4863062430    9.1953692500   10.0463340640
1      5.2989900630    0.0000000000    0.0000000000      5.2989900630    9.1953692500    0.0000000000
1      5.2989900630    0.0000000000    0.0000000000      3.4863062430    0.0000000000   10.0463340640
1      3.4863062430    0.0000000000   10.0463340640      3.4863062430    9.1953692500   10.0463340640
1      5.2989900630    9.1953692500    0.0000000000      3.4863062430    9.1953692500   10.0463340640
