 INFO
nunit      1    1    1
unit   cell
celltype   primcell
shape   parapipedal
 END_INFO
 DIM-GROUP
           3           1
 PRIMVEC
    5.3370103170    0.0000000000    0.0000000000
    0.0000000000    9.2681137860    0.0000000000
   -1.8194135370    0.0000000000   10.2529893780
 CONVVEC
    5.3370103170    0.0000000000    0.0000000000
    0.0000000000    9.2681137860    0.0000000000
   -1.8194135370    0.0000000000   10.2529893780
 PRIMCOORD
          44           1
 19      0.0000000000     4.5430299200     0.0000000000     0.0000000000    -0.0008755100     0.0000000000
 19      2.6685057380     0.0723923370     0.0000000000     0.0000000000     0.0008870300     0.0000000000
 12     -0.9097074590     0.0411759780     5.1264955530     0.0000000000     0.0000168000     0.0000000000
 12     -0.9097074590     3.0879995460     5.1264955530     0.0000000000    -0.0001011800     0.0000000000
 12     -0.9097074590     6.1655457150     5.1264955530     0.0000000000     0.0005595100     0.0000000000
 12      1.7587982800     4.5893584580     5.1264955530     0.0000000000    -0.0002215500     0.0000000000
 12      1.7587982800     7.7199034800     5.1264955530     0.0000000000     0.0000551000     0.0000000000
 14      0.0189897570     1.5236095870     2.3129927940     0.0000992600    -0.0000758600     0.0001071700
 14      3.4986065670     1.5236095870     7.9399983120    -0.0000992600    -0.0000758600    -0.0001071700
 14      3.5891396910     7.7280576750     7.8622786680     0.0000141100    -0.0001311500     0.0002112400
 14     -0.0715431590     7.7280576750     2.3907121410    -0.0000141100    -0.0001311500    -0.0002112400
 14      2.5942951270     6.1759941490     2.3673369090    -0.0000360100     0.0001515400     0.0002504400
 14      0.9233015870     6.1759941490     7.8856541970     0.0000360100     0.0001515400    -0.0002504400
 13      0.8134431630     3.0680024070     7.9170157070     0.0001300900     0.0000947200    -0.0001336000
 13      2.7041532910     3.0680024070     2.3359750910    -0.0001300900     0.0000947200     0.0001336000
  8     -0.0895294550     1.5192191520     3.9435846810     0.0000366200    -0.0002402000     0.0002790600
  8      3.6071259340     1.5192191520     6.3094064240    -0.0000366200    -0.0002402000    -0.0002790600
  8      3.5561198210     7.7203578180     6.2406254660     0.0002459800    -0.0001160600    -0.0000907700
  8     -0.0385231560     7.7203578180     4.0123659480    -0.0002459800    -0.0001160600     0.0000907700
  8      2.6288346190     6.1957021770     3.9961286260    -0.0001595800     0.0002278600     0.0003904300
  8      0.8887619950     6.1957021770     6.2568621720     0.0001595800     0.0002278600    -0.0003904300
  8      0.8207693470     3.1206405670     6.1776663490    -0.0002266300     0.0003402700    -0.0002099200
  8      2.6968271070     3.1206405670     4.0753244500     0.0002266300     0.0003402700     0.0002099200
  8      1.4981966640     1.9118183850     1.7524491590    -0.0000336500    -0.0003967700    -0.0006993700
  8      2.0193999220     1.9118183850     8.5005417930     0.0000336500    -0.0003967700     0.0006993700
  8      5.0515962610     9.2314565890     1.7610340740    -0.0003258600    -0.0000269100     0.0000704200
  8     -1.5339996010     9.2314565890     8.4919571860     0.0003258600    -0.0000269100    -0.0000704200
  8      2.1616816850     7.1390418730     8.4641815170    -0.0002455000     0.0004732500     0.0003510000
  8      1.3559150620     7.1390418730     1.7888094350     0.0002455000     0.0004732500    -0.0003510000
  8      4.0227989740     6.8165246460     1.7830107730     0.0001288500    -0.0004217700    -0.0003547300
  8     -0.5052024950     6.8165246460     8.4699803330    -0.0001288500    -0.0004217700     0.0003547300
  8      2.3911811110     4.7080318480     1.7110981200    -0.0003805900     0.0002373800    -0.0003256300
  8      1.1264152610     4.7080318480     8.5418931400     0.0003805900     0.0002373800     0.0003256300
  8     -0.7282256470     2.5192817560     8.5978031030    -0.0000822100    -0.0000263700    -0.0000143100
  8      4.2458223890     2.5192817560     1.6551878490     0.0000822100    -0.0000263700     0.0000143100
  8     -0.0180547760     4.6742593380     4.0650124050     0.0000302700    -0.0002464200     0.0002729600
  8      3.5356513900     4.6742593380     6.1879783930    -0.0000302700    -0.0002464200    -0.0002729600
  8      2.6616134090     9.2213075690     4.0890637040     0.0000054500     0.0001237300    -0.0000564900
  8      0.8559829960     9.2213075690     6.1639274020    -0.0000054500     0.0001237300     0.0000564900
  1     -0.0104547150     4.6035341120     3.1020779990    -0.0001126400     0.0002617500    -0.0000073900
  1      3.5280514510     4.6035341120     7.1509127990     0.0001126400     0.0002617500     0.0000073900
  1      2.5850518180     0.1596994800     3.1470164340    -0.0000021000    -0.0003041700     0.0002128500
  1      0.9325447960     0.1596994800     7.1059743650     0.0000021000    -0.0003041700    -0.0002128500
 26      1.7587982800     1.6059135050     5.1264955530     0.0000000000    -0.0001698600     0.0000000000
 CONVCOORD
          44           1
 19      0.0000000000     4.5430299200     0.0000000000
 19      2.6685057380     0.0723923370     0.0000000000
 12     -0.9097074590     0.0411759780     5.1264955530
 12     -0.9097074590     3.0879995460     5.1264955530
 12     -0.9097074590     6.1655457150     5.1264955530
 12      1.7587982800     4.5893584580     5.1264955530
 12      1.7587982800     7.7199034800     5.1264955530
 14      0.0189897570     1.5236095870     2.3129927940
 14      3.4986065670     1.5236095870     7.9399983120
 14      3.5891396910     7.7280576750     7.8622786680
 14     -0.0715431590     7.7280576750     2.3907121410
 14      2.5942951270     6.1759941490     2.3673369090
 14      0.9233015870     6.1759941490     7.8856541970
 13      0.8134431630     3.0680024070     7.9170157070
 13      2.7041532910     3.0680024070     2.3359750910
  8     -0.0895294550     1.5192191520     3.9435846810
  8      3.6071259340     1.5192191520     6.3094064240
  8      3.5561198210     7.7203578180     6.2406254660
  8     -0.0385231560     7.7203578180     4.0123659480
  8      2.6288346190     6.1957021770     3.9961286260
  8      0.8887619950     6.1957021770     6.2568621720
  8      0.8207693470     3.1206405670     6.1776663490
  8      2.6968271070     3.1206405670     4.0753244500
  8      1.4981966640     1.9118183850     1.7524491590
  8      2.0193999220     1.9118183850     8.5005417930
  8     -0.2854140560     9.2314565890     1.7610340740
  8     -1.5339996010     9.2314565890     8.4919571860
  8      2.1616816850     7.1390418730     8.4641815170
  8      1.3559150620     7.1390418730     1.7888094350
  8      4.0227989740     6.8165246460     1.7830107730
  8     -0.5052024950     6.8165246460     8.4699803330
  8      2.3911811110     4.7080318480     1.7110981200
  8      1.1264152610     4.7080318480     8.5418931400
  8     -0.7282256470     2.5192817560     8.5978031030
  8      4.2458223890     2.5192817560     1.6551878490
  8     -0.0180547760     4.6742593380     4.0650124050
  8      3.5356513900     4.6742593380     6.1879783930
  8      2.6616134090     9.2213075690     4.0890637040
  8      0.8559829960     9.2213075690     6.1639274020
  1     -0.0104547150     4.6035341120     3.1020779990
  1      3.5280514510     4.6035341120     7.1509127990
  1      2.5850518180     0.1596994800     3.1470164340
  1      0.9325447960     0.1596994800     7.1059743650
 26      1.7587982800     1.6059135050     5.1264955530
 RECIP-PRIMVEC
    0.1873708201   -0.0000000000    0.0332493280

    0.0000000000    0.1078968195   -0.0000000000

    0.0000000000    0.0000000000    0.0975325306

 RECIP-CONVVEC
    0.1873708201   -0.0000000000    0.0332493280

    0.0000000000    0.1078968195   -0.0000000000

    0.0000000000    0.0000000000    0.0975325306

 WIGNER-SEITZ-PRIMCELL
           4
 -0.2668505E+01  0.4634057E+01 -0.4814392E+01  -0.3245130E+00 -0.1849438E-16 -0.9458812E+00
 -0.8490916E+00  0.4634057E+01 -0.5438597E+01  -0.3245130E+00 -0.1849438E-16 -0.9458812E+00
 -0.8490916E+00 -0.4634057E+01 -0.5438597E+01  -0.3245130E+00 -0.1849438E-16 -0.9458812E+00
 -0.2668505E+01 -0.4634057E+01 -0.4814392E+01  -0.3245130E+00 -0.1849438E-16 -0.9458812E+00
           4
 -0.2668505E+01  0.4634057E+01 -0.4814392E+01  -0.1000000E+01 -0.0000000E+00 -0.0000000E+00
 -0.2668505E+01 -0.4634057E+01 -0.4814392E+01  -0.1000000E+01 -0.0000000E+00 -0.0000000E+00
 -0.2668505E+01 -0.4634057E+01  0.4814392E+01  -0.1000000E+01 -0.0000000E+00 -0.0000000E+00
 -0.2668505E+01  0.4634057E+01  0.4814392E+01  -0.1000000E+01 -0.0000000E+00 -0.0000000E+00
           6
  0.2668505E+01 -0.4634057E+01  0.4814392E+01  -0.0000000E+00 -0.1000000E+01  0.0000000E+00
  0.8490916E+00 -0.4634057E+01  0.5438597E+01  -0.0000000E+00 -0.1000000E+01  0.0000000E+00
 -0.2668505E+01 -0.4634057E+01  0.4814392E+01  -0.0000000E+00 -0.1000000E+01  0.0000000E+00
 -0.2668505E+01 -0.4634057E+01 -0.4814392E+01  -0.0000000E+00 -0.1000000E+01  0.0000000E+00
 -0.8490916E+00 -0.4634057E+01 -0.5438597E+01  -0.0000000E+00 -0.1000000E+01  0.0000000E+00
  0.2668505E+01 -0.4634057E+01 -0.4814392E+01  -0.0000000E+00 -0.1000000E+01  0.0000000E+00
           4
  0.2668505E+01  0.4634057E+01 -0.4814392E+01   0.1747224E+00  0.0000000E+00 -0.9846177E+00
  0.2668505E+01 -0.4634057E+01 -0.4814392E+01   0.1747224E+00  0.0000000E+00 -0.9846177E+00
 -0.8490916E+00 -0.4634057E+01 -0.5438597E+01   0.1747224E+00  0.0000000E+00 -0.9846177E+00
 -0.8490916E+00  0.4634057E+01 -0.5438597E+01   0.1747224E+00  0.0000000E+00 -0.9846177E+00
           4
 -0.2668505E+01  0.4634057E+01  0.4814392E+01  -0.1747224E+00 -0.2145954E-15  0.9846177E+00
 -0.2668505E+01 -0.4634057E+01  0.4814392E+01  -0.1747224E+00 -0.2145954E-15  0.9846177E+00
  0.8490916E+00 -0.4634057E+01  0.5438597E+01  -0.1747224E+00 -0.2145954E-15  0.9846177E+00
  0.8490916E+00  0.4634057E+01  0.5438597E+01  -0.1747224E+00 -0.2145954E-15  0.9846177E+00
           6
  0.2668505E+01  0.4634057E+01 -0.4814392E+01   0.4735932E-30  0.1000000E+01 -0.1599655E-14
 -0.8490916E+00  0.4634057E+01 -0.5438597E+01   0.4735932E-30  0.1000000E+01 -0.1599655E-14
 -0.2668505E+01  0.4634057E+01 -0.4814392E+01   0.4735932E-30  0.1000000E+01 -0.1599655E-14
 -0.2668505E+01  0.4634057E+01  0.4814392E+01   0.4735932E-30  0.1000000E+01 -0.1599655E-14
  0.8490916E+00  0.4634057E+01  0.5438597E+01   0.4735932E-30  0.1000000E+01 -0.1599655E-14
  0.2668505E+01  0.4634057E+01  0.4814392E+01   0.4735932E-30  0.1000000E+01 -0.1599655E-14
           4
  0.2668505E+01  0.4634057E+01  0.4814392E+01   0.1000000E+01  0.0000000E+00  0.0000000E+00
  0.2668505E+01 -0.4634057E+01  0.4814392E+01   0.1000000E+01  0.0000000E+00  0.0000000E+00
  0.2668505E+01 -0.4634057E+01 -0.4814392E+01   0.1000000E+01  0.0000000E+00  0.0000000E+00
  0.2668505E+01  0.4634057E+01 -0.4814392E+01   0.1000000E+01  0.0000000E+00  0.0000000E+00
           4
  0.8490916E+00 -0.4634057E+01  0.5438597E+01   0.3245130E+00  0.3705997E-15  0.9458812E+00
  0.2668505E+01 -0.4634057E+01  0.4814392E+01   0.3245130E+00  0.3705997E-15  0.9458812E+00
  0.2668505E+01  0.4634057E+01  0.4814392E+01   0.3245130E+00  0.3705997E-15  0.9458812E+00
  0.8490916E+00  0.4634057E+01  0.5438597E+01   0.3245130E+00  0.3705997E-15  0.9458812E+00
 WIGNER-SEITZ-PRIMCELL_END
 WIGNER-SEITZ-CONVCELL
           4
 -0.2668505E+01  0.4634057E+01 -0.4814392E+01  -0.3245130E+00 -0.1849438E-16 -0.9458812E+00
 -0.8490916E+00  0.4634057E+01 -0.5438597E+01  -0.3245130E+00 -0.1849438E-16 -0.9458812E+00
 -0.8490916E+00 -0.4634057E+01 -0.5438597E+01  -0.3245130E+00 -0.1849438E-16 -0.9458812E+00
 -0.2668505E+01 -0.4634057E+01 -0.4814392E+01  -0.3245130E+00 -0.1849438E-16 -0.9458812E+00
           4
 -0.2668505E+01  0.4634057E+01 -0.4814392E+01  -0.1000000E+01 -0.0000000E+00 -0.0000000E+00
 -0.2668505E+01 -0.4634057E+01 -0.4814392E+01  -0.1000000E+01 -0.0000000E+00 -0.0000000E+00
 -0.2668505E+01 -0.4634057E+01  0.4814392E+01  -0.1000000E+01 -0.0000000E+00 -0.0000000E+00
 -0.2668505E+01  0.4634057E+01  0.4814392E+01  -0.1000000E+01 -0.0000000E+00 -0.0000000E+00
           6
  0.2668505E+01 -0.4634057E+01  0.4814392E+01  -0.0000000E+00 -0.1000000E+01  0.0000000E+00
  0.8490916E+00 -0.4634057E+01  0.5438597E+01  -0.0000000E+00 -0.1000000E+01  0.0000000E+00
 -0.2668505E+01 -0.4634057E+01  0.4814392E+01  -0.0000000E+00 -0.1000000E+01  0.0000000E+00
 -0.2668505E+01 -0.4634057E+01 -0.4814392E+01  -0.0000000E+00 -0.1000000E+01  0.0000000E+00
 -0.8490916E+00 -0.4634057E+01 -0.5438597E+01  -0.0000000E+00 -0.1000000E+01  0.0000000E+00
  0.2668505E+01 -0.4634057E+01 -0.4814392E+01  -0.0000000E+00 -0.1000000E+01  0.0000000E+00
           4
  0.2668505E+01  0.4634057E+01 -0.4814392E+01   0.1747224E+00  0.0000000E+00 -0.9846177E+00
  0.2668505E+01 -0.4634057E+01 -0.4814392E+01   0.1747224E+00  0.0000000E+00 -0.9846177E+00
 -0.8490916E+00 -0.4634057E+01 -0.5438597E+01   0.1747224E+00  0.0000000E+00 -0.9846177E+00
 -0.8490916E+00  0.4634057E+01 -0.5438597E+01   0.1747224E+00  0.0000000E+00 -0.9846177E+00
           4
 -0.2668505E+01  0.4634057E+01  0.4814392E+01  -0.1747224E+00 -0.2145954E-15  0.9846177E+00
 -0.2668505E+01 -0.4634057E+01  0.4814392E+01  -0.1747224E+00 -0.2145954E-15  0.9846177E+00
  0.8490916E+00 -0.4634057E+01  0.5438597E+01  -0.1747224E+00 -0.2145954E-15  0.9846177E+00
  0.8490916E+00  0.4634057E+01  0.5438597E+01  -0.1747224E+00 -0.2145954E-15  0.9846177E+00
           6
  0.2668505E+01  0.4634057E+01 -0.4814392E+01   0.4735932E-30  0.1000000E+01 -0.1599655E-14
 -0.8490916E+00  0.4634057E+01 -0.5438597E+01   0.4735932E-30  0.1000000E+01 -0.1599655E-14
 -0.2668505E+01  0.4634057E+01 -0.4814392E+01   0.4735932E-30  0.1000000E+01 -0.1599655E-14
 -0.2668505E+01  0.4634057E+01  0.4814392E+01   0.4735932E-30  0.1000000E+01 -0.1599655E-14
  0.8490916E+00  0.4634057E+01  0.5438597E+01   0.4735932E-30  0.1000000E+01 -0.1599655E-14
  0.2668505E+01  0.4634057E+01  0.4814392E+01   0.4735932E-30  0.1000000E+01 -0.1599655E-14
           4
  0.2668505E+01  0.4634057E+01  0.4814392E+01   0.1000000E+01  0.0000000E+00  0.0000000E+00
  0.2668505E+01 -0.4634057E+01  0.4814392E+01   0.1000000E+01  0.0000000E+00  0.0000000E+00
  0.2668505E+01 -0.4634057E+01 -0.4814392E+01   0.1000000E+01  0.0000000E+00  0.0000000E+00
  0.2668505E+01  0.4634057E+01 -0.4814392E+01   0.1000000E+01  0.0000000E+00  0.0000000E+00
           4
  0.8490916E+00 -0.4634057E+01  0.5438597E+01   0.3245130E+00  0.3705997E-15  0.9458812E+00
  0.2668505E+01 -0.4634057E+01  0.4814392E+01   0.3245130E+00  0.3705997E-15  0.9458812E+00
  0.2668505E+01  0.4634057E+01  0.4814392E+01   0.3245130E+00  0.3705997E-15  0.9458812E+00
  0.8490916E+00  0.4634057E+01  0.5438597E+01   0.3245130E+00  0.3705997E-15  0.9458812E+00
 WIGNER-SEITZ-CONVCELL_END
 BRILLOUIN-ZONE-PRIMCELL
           4
  0.9938900E-01  0.5394841E-01 -0.1551694E-01   0.9458812E+00  0.0000000E+00 -0.3245130E+00
  0.9938900E-01 -0.5394841E-01 -0.1551694E-01   0.9458812E+00  0.0000000E+00 -0.3245130E+00
  0.8798182E-01 -0.5394841E-01 -0.4876627E-01   0.9458812E+00  0.0000000E+00 -0.3245130E+00
  0.8798182E-01  0.5394841E-01 -0.4876627E-01   0.9458812E+00  0.0000000E+00 -0.3245130E+00
           4
 -0.8798182E-01 -0.5394841E-01 -0.4876627E-01   0.0000000E+00  0.9136896E-16 -0.1000000E+01
 -0.8798182E-01  0.5394841E-01 -0.4876627E-01   0.0000000E+00  0.9136896E-16 -0.1000000E+01
  0.8798182E-01  0.5394841E-01 -0.4876627E-01   0.0000000E+00  0.9136896E-16 -0.1000000E+01
  0.8798182E-01 -0.5394841E-01 -0.4876627E-01   0.0000000E+00  0.9136896E-16 -0.1000000E+01
           6
  0.8798182E-01 -0.5394841E-01  0.4876627E-01  -0.0000000E+00 -0.1000000E+01  0.0000000E+00
 -0.8798182E-01 -0.5394841E-01  0.4876627E-01  -0.0000000E+00 -0.1000000E+01  0.0000000E+00
 -0.9938900E-01 -0.5394841E-01  0.1551694E-01  -0.0000000E+00 -0.1000000E+01  0.0000000E+00
 -0.8798182E-01 -0.5394841E-01 -0.4876627E-01  -0.0000000E+00 -0.1000000E+01  0.0000000E+00
  0.8798182E-01 -0.5394841E-01 -0.4876627E-01  -0.0000000E+00 -0.1000000E+01  0.0000000E+00
  0.9938900E-01 -0.5394841E-01 -0.1551694E-01  -0.0000000E+00 -0.1000000E+01  0.0000000E+00
           4
  0.8798182E-01  0.5394841E-01  0.4876627E-01   0.9846177E+00  0.3078235E-16  0.1747224E+00
  0.8798182E-01 -0.5394841E-01  0.4876627E-01   0.9846177E+00  0.3078235E-16  0.1747224E+00
  0.9938900E-01 -0.5394841E-01 -0.1551694E-01   0.9846177E+00  0.3078235E-16  0.1747224E+00
  0.9938900E-01  0.5394841E-01 -0.1551694E-01   0.9846177E+00  0.3078235E-16  0.1747224E+00
           4
 -0.8798182E-01  0.5394841E-01 -0.4876627E-01  -0.9846177E+00 -0.3078235E-16 -0.1747224E+00
 -0.8798182E-01 -0.5394841E-01 -0.4876627E-01  -0.9846177E+00 -0.3078235E-16 -0.1747224E+00
 -0.9938900E-01 -0.5394841E-01  0.1551694E-01  -0.9846177E+00 -0.3078235E-16 -0.1747224E+00
 -0.9938900E-01  0.5394841E-01  0.1551694E-01  -0.9846177E+00 -0.3078235E-16 -0.1747224E+00
           6
  0.9938900E-01  0.5394841E-01 -0.1551694E-01   0.0000000E+00  0.1000000E+01 -0.0000000E+00
  0.8798182E-01  0.5394841E-01 -0.4876627E-01   0.0000000E+00  0.1000000E+01 -0.0000000E+00
 -0.8798182E-01  0.5394841E-01 -0.4876627E-01   0.0000000E+00  0.1000000E+01 -0.0000000E+00
 -0.9938900E-01  0.5394841E-01  0.1551694E-01   0.0000000E+00  0.1000000E+01 -0.0000000E+00
 -0.8798182E-01  0.5394841E-01  0.4876627E-01   0.0000000E+00  0.1000000E+01 -0.0000000E+00
  0.8798182E-01  0.5394841E-01  0.4876627E-01   0.0000000E+00  0.1000000E+01 -0.0000000E+00
           4
 -0.8798182E-01 -0.5394841E-01  0.4876627E-01   0.4568448E-16 -0.0000000E+00  0.1000000E+01
  0.8798182E-01 -0.5394841E-01  0.4876627E-01   0.4568448E-16 -0.0000000E+00  0.1000000E+01
  0.8798182E-01  0.5394841E-01  0.4876627E-01   0.4568448E-16 -0.0000000E+00  0.1000000E+01
 -0.8798182E-01  0.5394841E-01  0.4876627E-01   0.4568448E-16 -0.0000000E+00  0.1000000E+01
           4
 -0.9938900E-01  0.5394841E-01  0.1551694E-01  -0.9458812E+00 -0.0000000E+00  0.3245130E+00
 -0.9938900E-01 -0.5394841E-01  0.1551694E-01  -0.9458812E+00 -0.0000000E+00  0.3245130E+00
 -0.8798182E-01 -0.5394841E-01  0.4876627E-01  -0.9458812E+00 -0.0000000E+00  0.3245130E+00
 -0.8798182E-01  0.5394841E-01  0.4876627E-01  -0.9458812E+00 -0.0000000E+00  0.3245130E+00
 BRILLOUIN-ZONE-PRIMCELL_END
 BRILLOUIN-ZONE-CONVCELL
           4
  0.9938900E-01  0.5394841E-01 -0.1551694E-01   0.9458812E+00  0.0000000E+00 -0.3245130E+00
  0.9938900E-01 -0.5394841E-01 -0.1551694E-01   0.9458812E+00  0.0000000E+00 -0.3245130E+00
  0.8798182E-01 -0.5394841E-01 -0.4876627E-01   0.9458812E+00  0.0000000E+00 -0.3245130E+00
  0.8798182E-01  0.5394841E-01 -0.4876627E-01   0.9458812E+00  0.0000000E+00 -0.3245130E+00
           4
 -0.8798182E-01 -0.5394841E-01 -0.4876627E-01   0.0000000E+00  0.9136896E-16 -0.1000000E+01
 -0.8798182E-01  0.5394841E-01 -0.4876627E-01   0.0000000E+00  0.9136896E-16 -0.1000000E+01
  0.8798182E-01  0.5394841E-01 -0.4876627E-01   0.0000000E+00  0.9136896E-16 -0.1000000E+01
  0.8798182E-01 -0.5394841E-01 -0.4876627E-01   0.0000000E+00  0.9136896E-16 -0.1000000E+01
           6
  0.8798182E-01 -0.5394841E-01  0.4876627E-01  -0.0000000E+00 -0.1000000E+01  0.0000000E+00
 -0.8798182E-01 -0.5394841E-01  0.4876627E-01  -0.0000000E+00 -0.1000000E+01  0.0000000E+00
 -0.9938900E-01 -0.5394841E-01  0.1551694E-01  -0.0000000E+00 -0.1000000E+01  0.0000000E+00
 -0.8798182E-01 -0.5394841E-01 -0.4876627E-01  -0.0000000E+00 -0.1000000E+01  0.0000000E+00
  0.8798182E-01 -0.5394841E-01 -0.4876627E-01  -0.0000000E+00 -0.1000000E+01  0.0000000E+00
  0.9938900E-01 -0.5394841E-01 -0.1551694E-01  -0.0000000E+00 -0.1000000E+01  0.0000000E+00
           4
  0.8798182E-01  0.5394841E-01  0.4876627E-01   0.9846177E+00  0.3078235E-16  0.1747224E+00
  0.8798182E-01 -0.5394841E-01  0.4876627E-01   0.9846177E+00  0.3078235E-16  0.1747224E+00
  0.9938900E-01 -0.5394841E-01 -0.1551694E-01   0.9846177E+00  0.3078235E-16  0.1747224E+00
  0.9938900E-01  0.5394841E-01 -0.1551694E-01   0.9846177E+00  0.3078235E-16  0.1747224E+00
           4
 -0.8798182E-01  0.5394841E-01 -0.4876627E-01  -0.9846177E+00 -0.3078235E-16 -0.1747224E+00
 -0.8798182E-01 -0.5394841E-01 -0.4876627E-01  -0.9846177E+00 -0.3078235E-16 -0.1747224E+00
 -0.9938900E-01 -0.5394841E-01  0.1551694E-01  -0.9846177E+00 -0.3078235E-16 -0.1747224E+00
 -0.9938900E-01  0.5394841E-01  0.1551694E-01  -0.9846177E+00 -0.3078235E-16 -0.1747224E+00
           6
  0.9938900E-01  0.5394841E-01 -0.1551694E-01   0.0000000E+00  0.1000000E+01 -0.0000000E+00
  0.8798182E-01  0.5394841E-01 -0.4876627E-01   0.0000000E+00  0.1000000E+01 -0.0000000E+00
 -0.8798182E-01  0.5394841E-01 -0.4876627E-01   0.0000000E+00  0.1000000E+01 -0.0000000E+00
 -0.9938900E-01  0.5394841E-01  0.1551694E-01   0.0000000E+00  0.1000000E+01 -0.0000000E+00
 -0.8798182E-01  0.5394841E-01  0.4876627E-01   0.0000000E+00  0.1000000E+01 -0.0000000E+00
  0.8798182E-01  0.5394841E-01  0.4876627E-01   0.0000000E+00  0.1000000E+01 -0.0000000E+00
           4
 -0.8798182E-01 -0.5394841E-01  0.4876627E-01   0.4568448E-16 -0.0000000E+00  0.1000000E+01
  0.8798182E-01 -0.5394841E-01  0.4876627E-01   0.4568448E-16 -0.0000000E+00  0.1000000E+01
  0.8798182E-01  0.5394841E-01  0.4876627E-01   0.4568448E-16 -0.0000000E+00  0.1000000E+01
 -0.8798182E-01  0.5394841E-01  0.4876627E-01   0.4568448E-16 -0.0000000E+00  0.1000000E+01
           4
 -0.9938900E-01  0.5394841E-01  0.1551694E-01  -0.9458812E+00 -0.0000000E+00  0.3245130E+00
 -0.9938900E-01 -0.5394841E-01  0.1551694E-01  -0.9458812E+00 -0.0000000E+00  0.3245130E+00
 -0.8798182E-01 -0.5394841E-01  0.4876627E-01  -0.9458812E+00 -0.0000000E+00  0.3245130E+00
 -0.8798182E-01  0.5394841E-01  0.4876627E-01  -0.9458812E+00 -0.0000000E+00  0.3245130E+00
 BRILLOUIN-ZONE-CONVCELL_END
 ATOMS
   19    0.0000000000    4.5430299200    0.0000000000    0.0000000000   -0.0008755100    0.0000000000
   19    2.6685057380    0.0723923370    0.0000000000    0.0000000000    0.0008870300    0.0000000000
   12   -0.9097074590    0.0411759780    5.1264955530    0.0000000000    0.0000168000    0.0000000000
   12   -0.9097074590    3.0879995460    5.1264955530    0.0000000000   -0.0001011800    0.0000000000
   12   -0.9097074590    6.1655457150    5.1264955530    0.0000000000    0.0005595100    0.0000000000
   12    1.7587982800    4.5893584580    5.1264955530    0.0000000000   -0.0002215500    0.0000000000
   12    1.7587982800    7.7199034800    5.1264955530    0.0000000000    0.0000551000    0.0000000000
   14    0.0189897570    1.5236095870    2.3129927940    0.0000992600   -0.0000758600    0.0001071700
   14    3.4986065670    1.5236095870    7.9399983120   -0.0000992600   -0.0000758600   -0.0001071700
   14    3.5891396910    7.7280576750    7.8622786680    0.0000141100   -0.0001311500    0.0002112400
   14   -0.0715431590    7.7280576750    2.3907121410   -0.0000141100   -0.0001311500   -0.0002112400
   14    2.5942951270    6.1759941490    2.3673369090   -0.0000360100    0.0001515400    0.0002504400
   14    0.9233015870    6.1759941490    7.8856541970    0.0000360100    0.0001515400   -0.0002504400
   13    0.8134431630    3.0680024070    7.9170157070    0.0001300900    0.0000947200   -0.0001336000
   13    2.7041532910    3.0680024070    2.3359750910   -0.0001300900    0.0000947200    0.0001336000
    8   -0.0895294550    1.5192191520    3.9435846810    0.0000366200   -0.0002402000    0.0002790600
    8    3.6071259340    1.5192191520    6.3094064240   -0.0000366200   -0.0002402000   -0.0002790600
    8    3.5561198210    7.7203578180    6.2406254660    0.0002459800   -0.0001160600   -0.0000907700
    8   -0.0385231560    7.7203578180    4.0123659480   -0.0002459800   -0.0001160600    0.0000907700
    8    2.6288346190    6.1957021770    3.9961286260   -0.0001595800    0.0002278600    0.0003904300
    8    0.8887619950    6.1957021770    6.2568621720    0.0001595800    0.0002278600   -0.0003904300
    8    0.8207693470    3.1206405670    6.1776663490   -0.0002266300    0.0003402700   -0.0002099200
    8    2.6968271070    3.1206405670    4.0753244500    0.0002266300    0.0003402700    0.0002099200
    8    1.4981966640    1.9118183850    1.7524491590   -0.0000336500   -0.0003967700   -0.0006993700
    8    2.0193999220    1.9118183850    8.5005417930    0.0000336500   -0.0003967700    0.0006993700
    8   -0.2854140560    9.2314565890    1.7610340740   -0.0003258600   -0.0000269100    0.0000704200
    8    2.1616816850    7.1390418730    8.4641815170   -0.0002455000    0.0004732500    0.0003510000
    8    1.3559150620    7.1390418730    1.7888094350    0.0002455000    0.0004732500   -0.0003510000
    8    4.0227989740    6.8165246460    1.7830107730    0.0001288500   -0.0004217700   -0.0003547300
    8   -0.5052024950    6.8165246460    8.4699803330   -0.0001288500   -0.0004217700    0.0003547300
    8    2.3911811110    4.7080318480    1.7110981200   -0.0003805900    0.0002373800   -0.0003256300
    8    1.1264152610    4.7080318480    8.5418931400    0.0003805900    0.0002373800    0.0003256300
    8   -0.7282256470    2.5192817560    8.5978031030   -0.0000822100   -0.0000263700   -0.0000143100
    8    4.2458223890    2.5192817560    1.6551878490    0.0000822100   -0.0000263700    0.0000143100
    8   -0.0180547760    4.6742593380    4.0650124050    0.0000302700   -0.0002464200    0.0002729600
    8    3.5356513900    4.6742593380    6.1879783930   -0.0000302700   -0.0002464200   -0.0002729600
    8    2.6616134090    9.2213075690    4.0890637040    0.0000054500    0.0001237300   -0.0000564900
    8    0.8559829960    9.2213075690    6.1639274020   -0.0000054500    0.0001237300    0.0000564900
    1   -0.0104547150    4.6035341120    3.1020779990   -0.0001126400    0.0002617500   -0.0000073900
    1    3.5280514510    4.6035341120    7.1509127990    0.0001126400    0.0002617500    0.0000073900
    1    2.5850518180    0.1596994800    3.1470164340   -0.0000021000   -0.0003041700    0.0002128500
    1    0.9325447960    0.1596994800    7.1059743650    0.0000021000   -0.0003041700   -0.0002128500
   26    1.7587982800    1.6059135050    5.1264955530    0.0000000000   -0.0001698600    0.0000000000
   19   -1.8194135370    4.5430299200   10.2529893780    0.0000000000   -0.0008755100    0.0000000000
   19    0.8490922010    0.0723923370   10.2529893780    0.0000000000    0.0008870300    0.0000000000
   19    5.3370103170    4.5430299200    0.0000000000    0.0000000000   -0.0008755100    0.0000000000
   12    4.4273028580    0.0411759780    5.1264955530    0.0000000000    0.0000168000    0.0000000000
   12    4.4273028580    3.0879995460    5.1264955530    0.0000000000   -0.0001011800    0.0000000000
   12    4.4273028580    6.1655457150    5.1264955530    0.0000000000    0.0005595100    0.0000000000
    8    3.8030107160    9.2314565890    8.4919571860    0.0003258600   -0.0000269100   -0.0000704200
   19    3.5175967800    4.5430299200   10.2529893780    0.0000000000   -0.0008755100    0.0000000000
 FRAMES
1      0.0000000000    0.0000000000    0.0000000000      5.3370103170    0.0000000000    0.0000000000
1      0.0000000000    0.0000000000    0.0000000000      0.0000000000    9.2681137860    0.0000000000
1      0.0000000000    0.0000000000    0.0000000000     -1.8194135370    0.0000000000   10.2529893780
1     -1.8194135370    0.0000000000   10.2529893780      3.5175967800    0.0000000000   10.2529893780
1     -1.8194135370    0.0000000000   10.2529893780     -1.8194135370    9.2681137860   10.2529893780
1      0.0000000000    9.2681137860    0.0000000000      5.3370103170    9.2681137860    0.0000000000
1      0.0000000000    9.2681137860    0.0000000000     -1.8194135370    9.2681137860   10.2529893780
1     -1.8194135370    9.2681137860   10.2529893780      3.5175967800    9.2681137860   10.2529893780
1      5.3370103170    0.0000000000    0.0000000000      5.3370103170    9.2681137860    0.0000000000
1      5.3370103170    0.0000000000    0.0000000000      3.5175967800    0.0000000000   10.2529893780
1      3.5175967800    0.0000000000   10.2529893780      3.5175967800    9.2681137860   10.2529893780
1      5.3370103170    9.2681137860    0.0000000000      3.5175967800    9.2681137860   10.2529893780
