 INFO
nunit      1    1    1
unit   cell
celltype   primcell
shape   parapipedal
 END_INFO
 DIM-GROUP
           3           1
 PRIMVEC
    5.2855997630    0.0000000000    0.0000000000
    0.0000000000    9.1787981240    0.0000000000
   -1.7735195730    0.0000000000   10.0361012630
 CONVVEC
    5.2855997630    0.0000000000    0.0000000000
    0.0000000000    9.1787981240    0.0000000000
   -1.7735195730    0.0000000000   10.0361012630
 PRIMCOORD
          44           1
 19      0.0000000000     4.5477640560     0.0000000000     0.0000000000     0.0005854500     0.0000000000
 19      2.6427998810     0.0272588420     0.0000000000     0.0000000000    -0.0004976900     0.0000000000
 12     -0.8867597870     0.0317605850     5.0180506310     0.0000000000    -0.0005094600     0.0000000000
 12     -0.8867597870     3.0674896330     5.0180506310     0.0000000000     0.0005995200     0.0000000000
 12     -0.8867597870     6.0803749660     5.0180506310     0.0000000000     0.0001743600     0.0000000000
 12      1.7560400950     7.6477926230     5.0180506310     0.0000000000    -0.0003552400     0.0000000000
 12      1.7560400950     1.5959675470     5.0180506310     0.0000000000    -0.0005071800     0.0000000000
 26      1.7560400950     4.5763935280     5.0180506310     0.0000000000     0.0000552400     0.0000000000
 14      0.0382773990     1.5154954060     2.2422938540     0.0000553100    -0.0002385700     0.0003027500
 14      3.4738026850     1.5154954060     7.7938075590    -0.0000553100    -0.0002385700    -0.0003027500
 14      3.5664071980     7.6555944020     7.7371732330     0.0000889200    -0.0001689000    -0.0000989000
 14     -0.0543270090     7.6555944020     2.2989280290    -0.0000889200    -0.0001689000     0.0000989000
 14      2.5836669010     6.1100701070     2.2697494990    -0.0001577200     0.0005595100     0.0008888700
 14      0.9284132350     6.1100701070     7.7663520650     0.0001577200     0.0005595100    -0.0008888700
 13      0.8333218100     3.0552805220     7.7807839140    -0.0001715500    -0.0002543700    -0.0007652000
 13      2.6787582220     3.0552805220     2.2553173490     0.0001715500    -0.0002543700     0.0007652000
  8     -0.0179551840     1.5026767380     3.8720123030    -0.0000075800     0.0001017300     0.0003238200
  8      3.5300352680     1.5026767380     6.1640886590     0.0000075800     0.0001017300    -0.0003238200
  8      3.5387553090     7.6369942100     6.1207090600     0.0002445200     0.0003077200     0.0003125500
  8     -0.0266751190     7.6369942100     3.9153922020    -0.0002445200     0.0003077200    -0.0003125500
  8      2.6275668120     6.1228718220     3.8979632740    -0.0001338100     0.0002219800     0.0005544800
  8      0.8845134300     6.1228718220     6.1381376870     0.0001338100     0.0002219800    -0.0005544800
  8      0.8590844080     3.0971029150     6.0464848510     0.0000565700    -0.0000928600    -0.0008853000
  8      2.6529957820     3.0971029150     3.9896164110    -0.0000565700    -0.0000928600     0.0008853000
  8      1.5208218220     1.8572325310     1.6706153990     0.0001545500    -0.0003193000    -0.0006215000
  8      1.9912583950     1.8572325310     8.3654857130    -0.0001545500    -0.0003193000     0.0006215000
  8      4.9514950240     9.1526542850     1.6863034000    -0.0000963600    -0.0002290200     0.0006423100
  8     -1.4394148610     9.1526542850     8.3497980140     0.0000963600    -0.0002290200    -0.0006423100
  8      2.1162796720     7.1353844400     8.3388319310    -0.0001622800     0.0001835000     0.0002044900
  8      1.3958005170     7.1353844400     1.6972693320     0.0001622800     0.0001835000    -0.0002044900
  8      4.0314343970     6.6979380370     1.6830739130    -0.0004330200    -0.0000322700     0.0001063400
  8     -0.5193542600     6.6979380370     8.3530276510     0.0004330200    -0.0000322700    -0.0001063400
  8      2.3121463860     4.6633932060     1.6048309110    -0.0002887300     0.0001777400    -0.0002576900
  8      1.1999338040     4.6633932060     8.4312703520     0.0002887300     0.0001777400     0.0002576900
  8     -0.7287263910     2.5479297020     8.4240108180    -0.0002488500     0.0002642300     0.0004913500
  8      4.2408065010     2.5479297020     1.6120904440     0.0002488500     0.0002642300    -0.0004913500
  8      0.0343611090     4.6099200040     3.9636614260     0.0001855100    -0.0005969400     0.0005006500
  8      3.4777189750     4.6099200040     6.0724395360    -0.0001855100    -0.0005969400    -0.0005006500
  8      2.6355101540     9.1739146510     3.9800284910     0.0001697100     0.0004070600     0.0009546600
  8      0.8765700350     9.1739146510     6.0560727710    -0.0001697100     0.0004070600    -0.0009546600
  1      0.1311191090     4.5123266990     3.0050262150     0.0004994000    -0.0005201500     0.0009687300
  1      3.3809610380     4.5123266990     7.0310750470    -0.0004994000    -0.0005201500    -0.0009687300
  1      2.6134724040     0.1330575220     3.0244669700    -0.0001979400     0.0004564000     0.0001172300
  1      0.8986078390     0.1330575220     7.0116339910     0.0001979400     0.0004564000    -0.0001172300
 CONVCOORD
          44           1
 19      0.0000000000     4.5477640560     0.0000000000
 19      2.6427998810     0.0272588420     0.0000000000
 12     -0.8867597870     0.0317605850     5.0180506310
 12     -0.8867597870     3.0674896330     5.0180506310
 12     -0.8867597870     6.0803749660     5.0180506310
 12      1.7560400950     7.6477926230     5.0180506310
 12      1.7560400950     1.5959675470     5.0180506310
 26      1.7560400950     4.5763935280     5.0180506310
 14      0.0382773990     1.5154954060     2.2422938540
 14      3.4738026850     1.5154954060     7.7938075590
 14      3.5664071980     7.6555944020     7.7371732330
 14     -0.0543270090     7.6555944020     2.2989280290
 14      2.5836669010     6.1100701070     2.2697494990
 14      0.9284132350     6.1100701070     7.7663520650
 13      0.8333218100     3.0552805220     7.7807839140
 13      2.6787582220     3.0552805220     2.2553173490
  8     -0.0179551840     1.5026767380     3.8720123030
  8      3.5300352680     1.5026767380     6.1640886590
  8      3.5387553090     7.6369942100     6.1207090600
  8     -0.0266751190     7.6369942100     3.9153922020
  8      2.6275668120     6.1228718220     3.8979632740
  8      0.8845134300     6.1228718220     6.1381376870
  8      0.8590844080     3.0971029150     6.0464848510
  8      2.6529957820     3.0971029150     3.9896164110
  8      1.5208218220     1.8572325310     1.6706153990
  8      1.9912583950     1.8572325310     8.3654857130
  8      4.9514950240     9.1526542850     1.6863034000
  8     -1.4394148610     9.1526542850     8.3497980140
  8      2.1162796720     7.1353844400     8.3388319310
  8      1.3958005170     7.1353844400     1.6972693320
  8      4.0314343970     6.6979380370     1.6830739130
  8     -0.5193542600     6.6979380370     8.3530276510
  8      2.3121463860     4.6633932060     1.6048309110
  8      1.1999338040     4.6633932060     8.4312703520
  8     -0.7287263910     2.5479297020     8.4240108180
  8      4.2408065010     2.5479297020     1.6120904440
  8      0.0343611090     4.6099200040     3.9636614260
  8      3.4777189750     4.6099200040     6.0724395360
  8      2.6355101540     9.1739146510     3.9800284910
  8      0.8765700350     9.1739146510     6.0560727710
  1      0.1311191090     4.5123266990     3.0050262150
  1      3.3809610380     4.5123266990     7.0310750470
  1      2.6134724040     0.1330575220     3.0244669700
  1      0.8986078390     0.1330575220     7.0116339910
 RECIP-PRIMVEC
    0.1891932883   -0.0000000000    0.0334331023

    0.0000000000    0.1089467255   -0.0000000000

    0.0000000000    0.0000000000    0.0996402860

 RECIP-CONVVEC
    0.1891932883   -0.0000000000    0.0334331023

    0.0000000000    0.1089467255   -0.0000000000

    0.0000000000    0.0000000000    0.0996402860

 WIGNER-SEITZ-PRIMCELL
           4
 -0.2642800E+01  0.4589399E+01 -0.4707734E+01  -0.3303039E+00  0.0000000E+00 -0.9438746E+00
 -0.8692803E+00  0.4589399E+01 -0.5328367E+01  -0.3303039E+00  0.0000000E+00 -0.9438746E+00
 -0.8692803E+00 -0.4589399E+01 -0.5328367E+01  -0.3303039E+00  0.0000000E+00 -0.9438746E+00
 -0.2642800E+01 -0.4589399E+01 -0.4707734E+01  -0.3303039E+00  0.0000000E+00 -0.9438746E+00
           4
 -0.2642800E+01  0.4589399E+01 -0.4707734E+01  -0.1000000E+01 -0.0000000E+00 -0.0000000E+00
 -0.2642800E+01 -0.4589399E+01 -0.4707734E+01  -0.1000000E+01 -0.0000000E+00 -0.0000000E+00
 -0.2642800E+01 -0.4589399E+01  0.4707734E+01  -0.1000000E+01 -0.0000000E+00 -0.0000000E+00
 -0.2642800E+01  0.4589399E+01  0.4707734E+01  -0.1000000E+01 -0.0000000E+00 -0.0000000E+00
           6
  0.2642800E+01 -0.4589399E+01  0.4707734E+01  -0.0000000E+00 -0.1000000E+01 -0.5415026E-15
  0.8692803E+00 -0.4589399E+01  0.5328367E+01  -0.0000000E+00 -0.1000000E+01 -0.5415026E-15
 -0.2642800E+01 -0.4589399E+01  0.4707734E+01  -0.0000000E+00 -0.1000000E+01 -0.5415026E-15
 -0.2642800E+01 -0.4589399E+01 -0.4707734E+01  -0.0000000E+00 -0.1000000E+01 -0.5415026E-15
 -0.8692803E+00 -0.4589399E+01 -0.5328367E+01  -0.0000000E+00 -0.1000000E+01 -0.5415026E-15
  0.2642800E+01 -0.4589399E+01 -0.4707734E+01  -0.0000000E+00 -0.1000000E+01 -0.5415026E-15
           4
  0.2642800E+01  0.4589399E+01 -0.4707734E+01   0.1740178E+00  0.0000000E+00 -0.9847425E+00
  0.2642800E+01 -0.4589399E+01 -0.4707734E+01   0.1740178E+00  0.0000000E+00 -0.9847425E+00
 -0.8692803E+00 -0.4589399E+01 -0.5328367E+01   0.1740178E+00  0.0000000E+00 -0.9847425E+00
 -0.8692803E+00  0.4589399E+01 -0.5328367E+01   0.1740178E+00  0.0000000E+00 -0.9847425E+00
           4
 -0.2642800E+01  0.4589399E+01  0.4707734E+01  -0.1740178E+00 -0.1085257E-15  0.9847425E+00
 -0.2642800E+01 -0.4589399E+01  0.4707734E+01  -0.1740178E+00 -0.1085257E-15  0.9847425E+00
  0.8692803E+00 -0.4589399E+01  0.5328367E+01  -0.1740178E+00 -0.1085257E-15  0.9847425E+00
  0.8692803E+00  0.4589399E+01  0.5328367E+01  -0.1740178E+00 -0.1085257E-15  0.9847425E+00
           6
  0.2642800E+01  0.4589399E+01 -0.4707734E+01   0.0000000E+00  0.1000000E+01 -0.0000000E+00
 -0.8692803E+00  0.4589399E+01 -0.5328367E+01   0.0000000E+00  0.1000000E+01 -0.0000000E+00
 -0.2642800E+01  0.4589399E+01 -0.4707734E+01   0.0000000E+00  0.1000000E+01 -0.0000000E+00
 -0.2642800E+01  0.4589399E+01  0.4707734E+01   0.0000000E+00  0.1000000E+01 -0.0000000E+00
  0.8692803E+00  0.4589399E+01  0.5328367E+01   0.0000000E+00  0.1000000E+01 -0.0000000E+00
  0.2642800E+01  0.4589399E+01  0.4707734E+01   0.0000000E+00  0.1000000E+01 -0.0000000E+00
           4
  0.2642800E+01  0.4589399E+01  0.4707734E+01   0.1000000E+01  0.0000000E+00  0.0000000E+00
  0.2642800E+01 -0.4589399E+01  0.4707734E+01   0.1000000E+01  0.0000000E+00  0.0000000E+00
  0.2642800E+01 -0.4589399E+01 -0.4707734E+01   0.1000000E+01  0.0000000E+00  0.0000000E+00
  0.2642800E+01  0.4589399E+01 -0.4707734E+01   0.1000000E+01  0.0000000E+00  0.0000000E+00
           4
  0.8692803E+00 -0.4589399E+01  0.5328367E+01   0.3303039E+00 -0.2059931E-15  0.9438746E+00
  0.2642800E+01 -0.4589399E+01  0.4707734E+01   0.3303039E+00 -0.2059931E-15  0.9438746E+00
  0.2642800E+01  0.4589399E+01  0.4707734E+01   0.3303039E+00 -0.2059931E-15  0.9438746E+00
  0.8692803E+00  0.4589399E+01  0.5328367E+01   0.3303039E+00 -0.2059931E-15  0.9438746E+00
 WIGNER-SEITZ-PRIMCELL_END
 WIGNER-SEITZ-CONVCELL
           4
 -0.2642800E+01  0.4589399E+01 -0.4707734E+01  -0.3303039E+00  0.0000000E+00 -0.9438746E+00
 -0.8692803E+00  0.4589399E+01 -0.5328367E+01  -0.3303039E+00  0.0000000E+00 -0.9438746E+00
 -0.8692803E+00 -0.4589399E+01 -0.5328367E+01  -0.3303039E+00  0.0000000E+00 -0.9438746E+00
 -0.2642800E+01 -0.4589399E+01 -0.4707734E+01  -0.3303039E+00  0.0000000E+00 -0.9438746E+00
           4
 -0.2642800E+01  0.4589399E+01 -0.4707734E+01  -0.1000000E+01 -0.0000000E+00 -0.0000000E+00
 -0.2642800E+01 -0.4589399E+01 -0.4707734E+01  -0.1000000E+01 -0.0000000E+00 -0.0000000E+00
 -0.2642800E+01 -0.4589399E+01  0.4707734E+01  -0.1000000E+01 -0.0000000E+00 -0.0000000E+00
 -0.2642800E+01  0.4589399E+01  0.4707734E+01  -0.1000000E+01 -0.0000000E+00 -0.0000000E+00
           6
  0.2642800E+01 -0.4589399E+01  0.4707734E+01  -0.0000000E+00 -0.1000000E+01 -0.5415026E-15
  0.8692803E+00 -0.4589399E+01  0.5328367E+01  -0.0000000E+00 -0.1000000E+01 -0.5415026E-15
 -0.2642800E+01 -0.4589399E+01  0.4707734E+01  -0.0000000E+00 -0.1000000E+01 -0.5415026E-15
 -0.2642800E+01 -0.4589399E+01 -0.4707734E+01  -0.0000000E+00 -0.1000000E+01 -0.5415026E-15
 -0.8692803E+00 -0.4589399E+01 -0.5328367E+01  -0.0000000E+00 -0.1000000E+01 -0.5415026E-15
  0.2642800E+01 -0.4589399E+01 -0.4707734E+01  -0.0000000E+00 -0.1000000E+01 -0.5415026E-15
           4
  0.2642800E+01  0.4589399E+01 -0.4707734E+01   0.1740178E+00  0.0000000E+00 -0.9847425E+00
  0.2642800E+01 -0.4589399E+01 -0.4707734E+01   0.1740178E+00  0.0000000E+00 -0.9847425E+00
 -0.8692803E+00 -0.4589399E+01 -0.5328367E+01   0.1740178E+00  0.0000000E+00 -0.9847425E+00
 -0.8692803E+00  0.4589399E+01 -0.5328367E+01   0.1740178E+00  0.0000000E+00 -0.9847425E+00
           4
 -0.2642800E+01  0.4589399E+01  0.4707734E+01  -0.1740178E+00 -0.1085257E-15  0.9847425E+00
 -0.2642800E+01 -0.4589399E+01  0.4707734E+01  -0.1740178E+00 -0.1085257E-15  0.9847425E+00
  0.8692803E+00 -0.4589399E+01  0.5328367E+01  -0.1740178E+00 -0.1085257E-15  0.9847425E+00
  0.8692803E+00  0.4589399E+01  0.5328367E+01  -0.1740178E+00 -0.1085257E-15  0.9847425E+00
           6
  0.2642800E+01  0.4589399E+01 -0.4707734E+01   0.0000000E+00  0.1000000E+01 -0.0000000E+00
 -0.8692803E+00  0.4589399E+01 -0.5328367E+01   0.0000000E+00  0.1000000E+01 -0.0000000E+00
 -0.2642800E+01  0.4589399E+01 -0.4707734E+01   0.0000000E+00  0.1000000E+01 -0.0000000E+00
 -0.2642800E+01  0.4589399E+01  0.4707734E+01   0.0000000E+00  0.1000000E+01 -0.0000000E+00
  0.8692803E+00  0.4589399E+01  0.5328367E+01   0.0000000E+00  0.1000000E+01 -0.0000000E+00
  0.2642800E+01  0.4589399E+01  0.4707734E+01   0.0000000E+00  0.1000000E+01 -0.0000000E+00
           4
  0.2642800E+01  0.4589399E+01  0.4707734E+01   0.1000000E+01  0.0000000E+00  0.0000000E+00
  0.2642800E+01 -0.4589399E+01  0.4707734E+01   0.1000000E+01  0.0000000E+00  0.0000000E+00
  0.2642800E+01 -0.4589399E+01 -0.4707734E+01   0.1000000E+01  0.0000000E+00  0.0000000E+00
  0.2642800E+01  0.4589399E+01 -0.4707734E+01   0.1000000E+01  0.0000000E+00  0.0000000E+00
           4
  0.8692803E+00 -0.4589399E+01  0.5328367E+01   0.3303039E+00 -0.2059931E-15  0.9438746E+00
  0.2642800E+01 -0.4589399E+01  0.4707734E+01   0.3303039E+00 -0.2059931E-15  0.9438746E+00
  0.2642800E+01  0.4589399E+01  0.4707734E+01   0.3303039E+00 -0.2059931E-15  0.9438746E+00
  0.8692803E+00  0.4589399E+01  0.5328367E+01   0.3303039E+00 -0.2059931E-15  0.9438746E+00
 WIGNER-SEITZ-CONVCELL_END
 BRILLOUIN-ZONE-PRIMCELL
           4
  0.1004465E+00 -0.5447336E-01 -0.1638704E-01   0.9438746E+00  0.5345016E-16 -0.3303039E+00
  0.8874678E-01 -0.5447336E-01 -0.4982014E-01   0.9438746E+00  0.5345016E-16 -0.3303039E+00
  0.8874678E-01  0.5447336E-01 -0.4982014E-01   0.9438746E+00  0.5345016E-16 -0.3303039E+00
  0.1004465E+00  0.5447336E-01 -0.1638704E-01   0.9438746E+00  0.5345016E-16 -0.3303039E+00
           4
 -0.8874678E-01  0.5447336E-01 -0.4982014E-01   0.0000000E+00  0.0000000E+00 -0.1000000E+01
  0.8874678E-01  0.5447336E-01 -0.4982014E-01   0.0000000E+00  0.0000000E+00 -0.1000000E+01
  0.8874678E-01 -0.5447336E-01 -0.4982014E-01   0.0000000E+00  0.0000000E+00 -0.1000000E+01
 -0.8874678E-01 -0.5447336E-01 -0.4982014E-01   0.0000000E+00  0.0000000E+00 -0.1000000E+01
           6
  0.8874678E-01 -0.5447336E-01  0.4982014E-01   0.0000000E+00 -0.1000000E+01 -0.2923284E-15
 -0.8874678E-01 -0.5447336E-01  0.4982014E-01   0.0000000E+00 -0.1000000E+01 -0.2923284E-15
 -0.1004465E+00 -0.5447336E-01  0.1638704E-01   0.0000000E+00 -0.1000000E+01 -0.2923284E-15
 -0.8874678E-01 -0.5447336E-01 -0.4982014E-01   0.0000000E+00 -0.1000000E+01 -0.2923284E-15
  0.8874678E-01 -0.5447336E-01 -0.4982014E-01   0.0000000E+00 -0.1000000E+01 -0.2923284E-15
  0.1004465E+00 -0.5447336E-01 -0.1638704E-01   0.0000000E+00 -0.1000000E+01 -0.2923284E-15
           4
  0.8874678E-01  0.5447336E-01  0.4982014E-01   0.9847425E+00  0.2220266E-16  0.1740178E+00
  0.8874678E-01 -0.5447336E-01  0.4982014E-01   0.9847425E+00  0.2220266E-16  0.1740178E+00
  0.1004465E+00 -0.5447336E-01 -0.1638704E-01   0.9847425E+00  0.2220266E-16  0.1740178E+00
  0.1004465E+00  0.5447336E-01 -0.1638704E-01   0.9847425E+00  0.2220266E-16  0.1740178E+00
           4
 -0.1004465E+00  0.5447336E-01  0.1638704E-01  -0.9847425E+00  0.1480177E-16 -0.1740178E+00
 -0.8874678E-01  0.5447336E-01 -0.4982014E-01  -0.9847425E+00  0.1480177E-16 -0.1740178E+00
 -0.8874678E-01 -0.5447336E-01 -0.4982014E-01  -0.9847425E+00  0.1480177E-16 -0.1740178E+00
 -0.1004465E+00 -0.5447336E-01  0.1638704E-01  -0.9847425E+00  0.1480177E-16 -0.1740178E+00
           6
  0.1004465E+00  0.5447336E-01 -0.1638704E-01  -0.0000000E+00  0.1000000E+01  0.2923284E-15
  0.8874678E-01  0.5447336E-01 -0.4982014E-01  -0.0000000E+00  0.1000000E+01  0.2923284E-15
 -0.8874678E-01  0.5447336E-01 -0.4982014E-01  -0.0000000E+00  0.1000000E+01  0.2923284E-15
 -0.1004465E+00  0.5447336E-01  0.1638704E-01  -0.0000000E+00  0.1000000E+01  0.2923284E-15
 -0.8874678E-01  0.5447336E-01  0.4982014E-01  -0.0000000E+00  0.1000000E+01  0.2923284E-15
  0.8874678E-01  0.5447336E-01  0.4982014E-01  -0.0000000E+00  0.1000000E+01  0.2923284E-15
           4
 -0.8874678E-01 -0.5447336E-01  0.4982014E-01  -0.0000000E+00 -0.0000000E+00  0.1000000E+01
  0.8874678E-01 -0.5447336E-01  0.4982014E-01  -0.0000000E+00 -0.0000000E+00  0.1000000E+01
  0.8874678E-01  0.5447336E-01  0.4982014E-01  -0.0000000E+00 -0.0000000E+00  0.1000000E+01
 -0.8874678E-01  0.5447336E-01  0.4982014E-01  -0.0000000E+00 -0.0000000E+00  0.1000000E+01
           4
 -0.1004465E+00  0.5447336E-01  0.1638704E-01  -0.9438746E+00 -0.0000000E+00  0.3303039E+00
 -0.1004465E+00 -0.5447336E-01  0.1638704E-01  -0.9438746E+00 -0.0000000E+00  0.3303039E+00
 -0.8874678E-01 -0.5447336E-01  0.4982014E-01  -0.9438746E+00 -0.0000000E+00  0.3303039E+00
 -0.8874678E-01  0.5447336E-01  0.4982014E-01  -0.9438746E+00 -0.0000000E+00  0.3303039E+00
 BRILLOUIN-ZONE-PRIMCELL_END
 BRILLOUIN-ZONE-CONVCELL
           4
  0.1004465E+00 -0.5447336E-01 -0.1638704E-01   0.9438746E+00  0.5345016E-16 -0.3303039E+00
  0.8874678E-01 -0.5447336E-01 -0.4982014E-01   0.9438746E+00  0.5345016E-16 -0.3303039E+00
  0.8874678E-01  0.5447336E-01 -0.4982014E-01   0.9438746E+00  0.5345016E-16 -0.3303039E+00
  0.1004465E+00  0.5447336E-01 -0.1638704E-01   0.9438746E+00  0.5345016E-16 -0.3303039E+00
           4
 -0.8874678E-01  0.5447336E-01 -0.4982014E-01   0.0000000E+00  0.0000000E+00 -0.1000000E+01
  0.8874678E-01  0.5447336E-01 -0.4982014E-01   0.0000000E+00  0.0000000E+00 -0.1000000E+01
  0.8874678E-01 -0.5447336E-01 -0.4982014E-01   0.0000000E+00  0.0000000E+00 -0.1000000E+01
 -0.8874678E-01 -0.5447336E-01 -0.4982014E-01   0.0000000E+00  0.0000000E+00 -0.1000000E+01
           6
  0.8874678E-01 -0.5447336E-01  0.4982014E-01   0.0000000E+00 -0.1000000E+01 -0.2923284E-15
 -0.8874678E-01 -0.5447336E-01  0.4982014E-01   0.0000000E+00 -0.1000000E+01 -0.2923284E-15
 -0.1004465E+00 -0.5447336E-01  0.1638704E-01   0.0000000E+00 -0.1000000E+01 -0.2923284E-15
 -0.8874678E-01 -0.5447336E-01 -0.4982014E-01   0.0000000E+00 -0.1000000E+01 -0.2923284E-15
  0.8874678E-01 -0.5447336E-01 -0.4982014E-01   0.0000000E+00 -0.1000000E+01 -0.2923284E-15
  0.1004465E+00 -0.5447336E-01 -0.1638704E-01   0.0000000E+00 -0.1000000E+01 -0.2923284E-15
           4
  0.8874678E-01  0.5447336E-01  0.4982014E-01   0.9847425E+00  0.2220266E-16  0.1740178E+00
  0.8874678E-01 -0.5447336E-01  0.4982014E-01   0.9847425E+00  0.2220266E-16  0.1740178E+00
  0.1004465E+00 -0.5447336E-01 -0.1638704E-01   0.9847425E+00  0.2220266E-16  0.1740178E+00
  0.1004465E+00  0.5447336E-01 -0.1638704E-01   0.9847425E+00  0.2220266E-16  0.1740178E+00
           4
 -0.1004465E+00  0.5447336E-01  0.1638704E-01  -0.9847425E+00  0.1480177E-16 -0.1740178E+00
 -0.8874678E-01  0.5447336E-01 -0.4982014E-01  -0.9847425E+00  0.1480177E-16 -0.1740178E+00
 -0.8874678E-01 -0.5447336E-01 -0.4982014E-01  -0.9847425E+00  0.1480177E-16 -0.1740178E+00
 -0.1004465E+00 -0.5447336E-01  0.1638704E-01  -0.9847425E+00  0.1480177E-16 -0.1740178E+00
           6
  0.1004465E+00  0.5447336E-01 -0.1638704E-01  -0.0000000E+00  0.1000000E+01  0.2923284E-15
  0.8874678E-01  0.5447336E-01 -0.4982014E-01  -0.0000000E+00  0.1000000E+01  0.2923284E-15
 -0.8874678E-01  0.5447336E-01 -0.4982014E-01  -0.0000000E+00  0.1000000E+01  0.2923284E-15
 -0.1004465E+00  0.5447336E-01  0.1638704E-01  -0.0000000E+00  0.1000000E+01  0.2923284E-15
 -0.8874678E-01  0.5447336E-01  0.4982014E-01  -0.0000000E+00  0.1000000E+01  0.2923284E-15
  0.8874678E-01  0.5447336E-01  0.4982014E-01  -0.0000000E+00  0.1000000E+01  0.2923284E-15
           4
 -0.8874678E-01 -0.5447336E-01  0.4982014E-01  -0.0000000E+00 -0.0000000E+00  0.1000000E+01
  0.8874678E-01 -0.5447336E-01  0.4982014E-01  -0.0000000E+00 -0.0000000E+00  0.1000000E+01
  0.8874678E-01  0.5447336E-01  0.4982014E-01  -0.0000000E+00 -0.0000000E+00  0.1000000E+01
 -0.8874678E-01  0.5447336E-01  0.4982014E-01  -0.0000000E+00 -0.0000000E+00  0.1000000E+01
           4
 -0.1004465E+00  0.5447336E-01  0.1638704E-01  -0.9438746E+00 -0.0000000E+00  0.3303039E+00
 -0.1004465E+00 -0.5447336E-01  0.1638704E-01  -0.9438746E+00 -0.0000000E+00  0.3303039E+00
 -0.8874678E-01 -0.5447336E-01  0.4982014E-01  -0.9438746E+00 -0.0000000E+00  0.3303039E+00
 -0.8874678E-01  0.5447336E-01  0.4982014E-01  -0.9438746E+00 -0.0000000E+00  0.3303039E+00
 BRILLOUIN-ZONE-CONVCELL_END
 ATOMS
   19    0.0000000000    4.5477640560    0.0000000000    0.0000000000    0.0005854500    0.0000000000
   19    2.6427998810    0.0272588420    0.0000000000    0.0000000000   -0.0004976900    0.0000000000
   12   -0.8867597870    0.0317605850    5.0180506310    0.0000000000   -0.0005094600    0.0000000000
   12   -0.8867597870    3.0674896330    5.0180506310    0.0000000000    0.0005995200    0.0000000000
   12   -0.8867597870    6.0803749660    5.0180506310    0.0000000000    0.0001743600    0.0000000000
   12    1.7560400950    7.6477926230    5.0180506310    0.0000000000   -0.0003552400    0.0000000000
   12    1.7560400950    1.5959675470    5.0180506310    0.0000000000   -0.0005071800    0.0000000000
   26    1.7560400950    4.5763935280    5.0180506310    0.0000000000    0.0000552400    0.0000000000
   14    0.0382773990    1.5154954060    2.2422938540    0.0000553100   -0.0002385700    0.0003027500
   14    3.4738026850    1.5154954060    7.7938075590   -0.0000553100   -0.0002385700   -0.0003027500
   14    3.5664071980    7.6555944020    7.7371732330    0.0000889200   -0.0001689000   -0.0000989000
   14   -0.0543270090    7.6555944020    2.2989280290   -0.0000889200   -0.0001689000    0.0000989000
   14    2.5836669010    6.1100701070    2.2697494990   -0.0001577200    0.0005595100    0.0008888700
   14    0.9284132350    6.1100701070    7.7663520650    0.0001577200    0.0005595100   -0.0008888700
   13    0.8333218100    3.0552805220    7.7807839140   -0.0001715500   -0.0002543700   -0.0007652000
   13    2.6787582220    3.0552805220    2.2553173490    0.0001715500   -0.0002543700    0.0007652000
    8   -0.0179551840    1.5026767380    3.8720123030   -0.0000075800    0.0001017300    0.0003238200
    8    3.5300352680    1.5026767380    6.1640886590    0.0000075800    0.0001017300   -0.0003238200
    8    3.5387553090    7.6369942100    6.1207090600    0.0002445200    0.0003077200    0.0003125500
    8   -0.0266751190    7.6369942100    3.9153922020   -0.0002445200    0.0003077200   -0.0003125500
    8    2.6275668120    6.1228718220    3.8979632740   -0.0001338100    0.0002219800    0.0005544800
    8    0.8845134300    6.1228718220    6.1381376870    0.0001338100    0.0002219800   -0.0005544800
    8    0.8590844080    3.0971029150    6.0464848510    0.0000565700   -0.0000928600   -0.0008853000
    8    2.6529957820    3.0971029150    3.9896164110   -0.0000565700   -0.0000928600    0.0008853000
    8    1.5208218220    1.8572325310    1.6706153990    0.0001545500   -0.0003193000   -0.0006215000
    8    1.9912583950    1.8572325310    8.3654857130   -0.0001545500   -0.0003193000    0.0006215000
    8    4.9514950240    9.1526542850    1.6863034000   -0.0000963600   -0.0002290200    0.0006423100
    8   -1.4394148610    9.1526542850    8.3497980140    0.0000963600   -0.0002290200   -0.0006423100
    8    2.1162796720    7.1353844400    8.3388319310   -0.0001622800    0.0001835000    0.0002044900
    8    1.3958005170    7.1353844400    1.6972693320    0.0001622800    0.0001835000   -0.0002044900
    8    4.0314343970    6.6979380370    1.6830739130   -0.0004330200   -0.0000322700    0.0001063400
    8   -0.5193542600    6.6979380370    8.3530276510    0.0004330200   -0.0000322700   -0.0001063400
    8    2.3121463860    4.6633932060    1.6048309110   -0.0002887300    0.0001777400   -0.0002576900
    8    1.1999338040    4.6633932060    8.4312703520    0.0002887300    0.0001777400    0.0002576900
    8   -0.7287263910    2.5479297020    8.4240108180   -0.0002488500    0.0002642300    0.0004913500
    8    4.2408065010    2.5479297020    1.6120904440    0.0002488500    0.0002642300   -0.0004913500
    8    0.0343611090    4.6099200040    3.9636614260    0.0001855100   -0.0005969400    0.0005006500
    8    3.4777189750    4.6099200040    6.0724395360   -0.0001855100   -0.0005969400   -0.0005006500
    8    2.6355101540    9.1739146510    3.9800284910    0.0001697100    0.0004070600    0.0009546600
    8    0.8765700350    9.1739146510    6.0560727710   -0.0001697100    0.0004070600   -0.0009546600
    1    0.1311191090    4.5123266990    3.0050262150    0.0004994000   -0.0005201500    0.0009687300
    1    3.3809610380    4.5123266990    7.0310750470   -0.0004994000   -0.0005201500   -0.0009687300
    1    2.6134724040    0.1330575220    3.0244669700   -0.0001979400    0.0004564000    0.0001172300
    1    0.8986078390    0.1330575220    7.0116339910    0.0001979400    0.0004564000   -0.0001172300
   19   -1.7735195730    4.5477640560   10.0361012630    0.0000000000    0.0005854500    0.0000000000
   19    0.8692803080    0.0272588420   10.0361012630    0.0000000000   -0.0004976900    0.0000000000
   19    5.2855997630    4.5477640560    0.0000000000    0.0000000000    0.0005854500    0.0000000000
   12    4.3988399760    0.0317605850    5.0180506310    0.0000000000   -0.0005094600    0.0000000000
   12    4.3988399760    3.0674896330    5.0180506310    0.0000000000    0.0005995200    0.0000000000
   12    4.3988399760    6.0803749660    5.0180506310    0.0000000000    0.0001743600    0.0000000000
   19    3.5120801900    4.5477640560   10.0361012630    0.0000000000    0.0005854500    0.0000000000
 FRAMES
1      0.0000000000    0.0000000000    0.0000000000      5.2855997630    0.0000000000    0.0000000000
1      0.0000000000    0.0000000000    0.0000000000      0.0000000000    9.1787981240    0.0000000000
1      0.0000000000    0.0000000000    0.0000000000     -1.7735195730    0.0000000000   10.0361012630
1     -1.7735195730    0.0000000000   10.0361012630      3.5120801900    0.0000000000   10.0361012630
1     -1.7735195730    0.0000000000   10.0361012630     -1.7735195730    9.1787981240   10.0361012630
1      0.0000000000    9.1787981240    0.0000000000      5.2855997630    9.1787981240    0.0000000000
1      0.0000000000    9.1787981240    0.0000000000     -1.7735195730    9.1787981240   10.0361012630
1     -1.7735195730    9.1787981240   10.0361012630      3.5120801900    9.1787981240   10.0361012630
1      5.2855997630    0.0000000000    0.0000000000      5.2855997630    9.1787981240    0.0000000000
1      5.2855997630    0.0000000000    0.0000000000      3.5120801900    0.0000000000   10.0361012630
1      3.5120801900    0.0000000000   10.0361012630      3.5120801900    9.1787981240   10.0361012630
1      5.2855997630    9.1787981240    0.0000000000      3.5120801900    9.1787981240   10.0361012630
