 INFO
nunit      1    1    1
unit   cell
celltype   primcell
shape   parapipedal
 END_INFO
 DIM-GROUP
           3           1
 PRIMVEC
    5.2989900630    0.0000000000    0.0000000000
    0.0000000000    9.1953692500    0.0000000000
   -1.8126838200    0.0000000000   10.0463340640
 CONVVEC
    5.2989900630    0.0000000000    0.0000000000
    0.0000000000    9.1953692500    0.0000000000
   -1.8126838200    0.0000000000   10.0463340640
 PRIMCOORD
          43           1
 19      0.0000000000     4.6476198980     0.0000000000     0.0000000000    -0.0001205100     0.0000000000
 19      2.6494950310    -0.0976311090     0.0000000000     0.0000000000    -0.0001219400     0.0000000000
 12     -0.9063419100     6.0074149490     5.0231670320     0.0000000000    -0.0000689600     0.0000000000
 12      1.7431531220     4.5405183640     5.0231670320     0.0000000000     0.0000631100     0.0000000000
 12      1.7431531220     7.6472242470     5.0231670320     0.0000000000    -0.0006451700     0.0000000000
 12      1.7431531220     1.7831118180     5.0231670320     0.0000000000    -0.0000261400     0.0000000000
 14      0.0812777230     1.4789748580     2.1416425630    -0.0001778900    -0.0000586900    -0.0000616300
 14      3.4050283920     1.4789748580     7.9046918030     0.0001778900    -0.0000586900     0.0000616300
 14      3.5998343500     7.6582459360     7.7557941880    -0.0000428100    -0.0000690800    -0.0000090100
 14     -0.1135281060     7.6582459360     2.2905398770     0.0000428100    -0.0000690800     0.0000090100
 14      2.5476033760     6.1023028580     2.2860128660    -0.0000648300     0.0003113600     0.0000016900
 14      0.9387028950     6.1023028580     7.7603210480     0.0000648300     0.0003113600    -0.0000016900
 13      0.7437603130     3.0698845780     7.7879293450     0.0001532600     0.0001267500    -0.0002752900
 13      2.7425459300     3.0698845780     2.2584047190    -0.0001532600     0.0001267500     0.0002752900
  8     -0.0322527140     1.3345751450     3.8102982650    -0.0000141200     0.0003696000     0.0000035300
  8      3.5185587460     1.3345751450     6.2360360910     0.0000141200     0.0003696000    -0.0000035300
  8      3.5781843330     7.7955088110     6.1101120390     0.0001548600     0.0000116000     0.0000080200
  8     -0.0918780900     7.7955088110     3.9362220260    -0.0001548600     0.0000116000    -0.0000080200
  8      2.6157076570     6.2149333900     3.9045190640    -0.0000292800    -0.0002942500     0.0001169000
  8      0.8705985860     6.2149333900     6.1418150000     0.0000292800    -0.0002942500    -0.0001169000
  8      0.8204847480     3.0968050690     6.0838240360     0.0003286500     0.0000622400    -0.0003529000
  8      2.6658214950     3.0968050690     3.9625100290    -0.0003286500     0.0000622400     0.0003529000
  8      1.6034149530     1.7937227190     1.6991691350     0.0000421700    -0.0002254400    -0.0002738500
  8      1.8828913450     1.7937227190     8.3471646280    -0.0000421700    -0.0002254400     0.0002738500
  8      5.0135035250     9.1472997610     1.6054439540    -0.0001948800     0.0000454600    -0.0000380100
  8     -1.5271972550     9.1472997610     8.4408899600     0.0001948800     0.0000454600     0.0000380100
  8      2.1845507830     7.0645085980     8.3209569220    -0.0000488400     0.0002799100     0.0003870100
  8      1.3017554600     7.0645085980     1.7253771420     0.0000488400     0.0002799100    -0.0003870100
  8      3.9156920400     6.8401671590     1.6771251350     0.0002359000    -0.0002449800     0.0001117000
  8     -0.4293857970     6.8401671590     8.3692089290    -0.0002359000    -0.0002449800    -0.0001117000
  8      2.4403502970     4.6672604730     1.5691569800    -0.0000235800     0.0001184900     0.0000382000
  8      1.0459557600     4.6672604730     8.4771772350     0.0000235800     0.0001184900    -0.0000382000
  8     -0.8078131220     2.5139130710     8.4664639630    -0.0000942000     0.0004216100    -0.0000008100
  8      4.2941194440     2.5139130710     1.5798701010     0.0000942000     0.0004216100     0.0000008100
  8      0.1020250860     4.8653957260     3.7663245790     0.0001245000     0.0001146900     0.0008197700
  8      3.3842812370     4.8653957260     6.2800094850    -0.0001245000     0.0001146900    -0.0008197700
  8      2.6804224840     9.2554954650     4.0170151650     0.0002624700    -0.0003730500    -0.0000520900
  8      0.8058838140     9.2554954650     6.0293185980    -0.0002624700    -0.0003730500     0.0000520900
  1     -0.4122075020     4.0371913180     3.7398059320    -0.0000967300     0.0001284500     0.0001009500
  1      3.8985139040     4.0371913180     6.3065281320     0.0000967300     0.0001284500    -0.0001009500
  1      2.5996574390     0.3039558000     3.0751656900     0.0002497300    -0.0001586500     0.0002028600
  1      0.8866488040     0.3039558000     6.9711683750    -0.0002497300    -0.0001586500    -0.0002028600
 22     -0.9063419100     0.2262759620     5.0231670320     0.0000000000    -0.0002124300     0.0000000000
 CONVCOORD
          43           1
 19      0.0000000000     4.6476198980     0.0000000000
 19      2.6494950310    -0.0976311090     0.0000000000
 12     -0.9063419100     6.0074149490     5.0231670320
 12      1.7431531220     4.5405183640     5.0231670320
 12      1.7431531220     7.6472242470     5.0231670320
 12      1.7431531220     1.7831118180     5.0231670320
 14      0.0812777230     1.4789748580     2.1416425630
 14      3.4050283920     1.4789748580     7.9046918030
 14      3.5998343500     7.6582459360     7.7557941880
 14     -0.1135281060     7.6582459360     2.2905398770
 14      2.5476033760     6.1023028580     2.2860128660
 14      0.9387028950     6.1023028580     7.7603210480
 13      0.7437603130     3.0698845780     7.7879293450
 13      2.7425459300     3.0698845780     2.2584047190
  8     -0.0322527140     1.3345751450     3.8102982650
  8      3.5185587460     1.3345751450     6.2360360910
  8      3.5781843330     7.7955088110     6.1101120390
  8     -0.0918780900     7.7955088110     3.9362220260
  8      2.6157076570     6.2149333900     3.9045190640
  8      0.8705985860     6.2149333900     6.1418150000
  8      0.8204847480     3.0968050690     6.0838240360
  8      2.6658214950     3.0968050690     3.9625100290
  8      1.6034149530     1.7937227190     1.6991691350
  8      1.8828913450     1.7937227190     8.3471646280
  8     -0.2854865380     9.1472997610     1.6054439540
  8     -1.5271972550     9.1472997610     8.4408899600
  8      2.1845507830     7.0645085980     8.3209569220
  8      1.3017554600     7.0645085980     1.7253771420
  8      3.9156920400     6.8401671590     1.6771251350
  8     -0.4293857970     6.8401671590     8.3692089290
  8      2.4403502970     4.6672604730     1.5691569800
  8      1.0459557600     4.6672604730     8.4771772350
  8     -0.8078131220     2.5139130710     8.4664639630
  8      4.2941194440     2.5139130710     1.5798701010
  8      0.1020250860     4.8653957260     3.7663245790
  8      3.3842812370     4.8653957260     6.2800094850
  8      2.6804224840     0.0601262150     4.0170151650
  8      0.8058838140     0.0601262150     6.0293185980
  1     -0.4122075020     4.0371913180     3.7398059320
  1      3.8985139040     4.0371913180     6.3065281320
  1      2.5996574390     0.3039558000     3.0751656900
  1      0.8866488040     0.3039558000     6.9711683750
 22     -0.9063419100     0.2262759620     5.0231670320
 RECIP-PRIMVEC
    0.1887152057   -0.0000000000    0.0340503310

    0.0000000000    0.1087503909   -0.0000000000

    0.0000000000    0.0000000000    0.0995387963

 RECIP-CONVVEC
    0.1887152057   -0.0000000000    0.0340503310

    0.0000000000    0.1087503909   -0.0000000000

    0.0000000000    0.0000000000    0.0995387963

 WIGNER-SEITZ-PRIMCELL
           4
 -0.2649495E+01  0.4597685E+01 -0.4708646E+01  -0.3278435E+00 -0.1009766E-15 -0.9447320E+00
 -0.8368112E+00  0.4597685E+01 -0.5337688E+01  -0.3278435E+00 -0.1009766E-15 -0.9447320E+00
 -0.8368112E+00 -0.4597685E+01 -0.5337688E+01  -0.3278435E+00 -0.1009766E-15 -0.9447320E+00
 -0.2649495E+01 -0.4597685E+01 -0.4708646E+01  -0.3278435E+00 -0.1009766E-15 -0.9447320E+00
           4
 -0.2649495E+01  0.4597685E+01 -0.4708646E+01  -0.1000000E+01  0.4829488E-16  0.4554862E-32
 -0.2649495E+01 -0.4597685E+01 -0.4708646E+01  -0.1000000E+01  0.4829488E-16  0.4554862E-32
 -0.2649495E+01 -0.4597685E+01  0.4708646E+01  -0.1000000E+01  0.4829488E-16  0.4554862E-32
 -0.2649495E+01  0.4597685E+01  0.4708646E+01  -0.1000000E+01  0.4829488E-16  0.4554862E-32
           6
  0.2649495E+01 -0.4597685E+01  0.4708646E+01  -0.0000000E+00 -0.1000000E+01  0.1065828E-14
  0.8368112E+00 -0.4597685E+01  0.5337688E+01  -0.0000000E+00 -0.1000000E+01  0.1065828E-14
 -0.2649495E+01 -0.4597685E+01  0.4708646E+01  -0.0000000E+00 -0.1000000E+01  0.1065828E-14
 -0.2649495E+01 -0.4597685E+01 -0.4708646E+01  -0.0000000E+00 -0.1000000E+01  0.1065828E-14
 -0.8368112E+00 -0.4597685E+01 -0.5337688E+01  -0.0000000E+00 -0.1000000E+01  0.1065828E-14
  0.2649495E+01 -0.4597685E+01 -0.4708646E+01  -0.0000000E+00 -0.1000000E+01  0.1065828E-14
           4
  0.2649495E+01 -0.4597685E+01 -0.4708646E+01   0.1775651E+00 -0.2181216E-15 -0.9841091E+00
 -0.8368112E+00 -0.4597685E+01 -0.5337688E+01   0.1775651E+00 -0.2181216E-15 -0.9841091E+00
 -0.8368112E+00  0.4597685E+01 -0.5337688E+01   0.1775651E+00 -0.2181216E-15 -0.9841091E+00
  0.2649495E+01  0.4597685E+01 -0.4708646E+01   0.1775651E+00 -0.2181216E-15 -0.9841091E+00
           4
 -0.2649495E+01  0.4597685E+01  0.4708646E+01  -0.1775651E+00 -0.0000000E+00  0.9841091E+00
 -0.2649495E+01 -0.4597685E+01  0.4708646E+01  -0.1775651E+00 -0.0000000E+00  0.9841091E+00
  0.8368112E+00 -0.4597685E+01  0.5337688E+01  -0.1775651E+00 -0.0000000E+00  0.9841091E+00
  0.8368112E+00  0.4597685E+01  0.5337688E+01  -0.1775651E+00 -0.0000000E+00  0.9841091E+00
           6
  0.2649495E+01  0.4597685E+01 -0.4708646E+01   0.0000000E+00  0.1000000E+01  0.1065828E-14
 -0.8368112E+00  0.4597685E+01 -0.5337688E+01   0.0000000E+00  0.1000000E+01  0.1065828E-14
 -0.2649495E+01  0.4597685E+01 -0.4708646E+01   0.0000000E+00  0.1000000E+01  0.1065828E-14
 -0.2649495E+01  0.4597685E+01  0.4708646E+01   0.0000000E+00  0.1000000E+01  0.1065828E-14
  0.8368112E+00  0.4597685E+01  0.5337688E+01   0.0000000E+00  0.1000000E+01  0.1065828E-14
  0.2649495E+01  0.4597685E+01  0.4708646E+01   0.0000000E+00  0.1000000E+01  0.1065828E-14
           4
  0.2649495E+01  0.4597685E+01  0.4708646E+01   0.1000000E+01 -0.4829488E-16  0.0000000E+00
  0.2649495E+01 -0.4597685E+01  0.4708646E+01   0.1000000E+01 -0.4829488E-16  0.0000000E+00
  0.2649495E+01 -0.4597685E+01 -0.4708646E+01   0.1000000E+01 -0.4829488E-16  0.0000000E+00
  0.2649495E+01  0.4597685E+01 -0.4708646E+01   0.1000000E+01 -0.4829488E-16  0.0000000E+00
           4
  0.8368112E+00 -0.4597685E+01  0.5337688E+01   0.3278435E+00  0.3334111E-16  0.9447320E+00
  0.2649495E+01 -0.4597685E+01  0.4708646E+01   0.3278435E+00  0.3334111E-16  0.9447320E+00
  0.2649495E+01  0.4597685E+01  0.4708646E+01   0.3278435E+00  0.3334111E-16  0.9447320E+00
  0.8368112E+00  0.4597685E+01  0.5337688E+01   0.3278435E+00  0.3334111E-16  0.9447320E+00
 WIGNER-SEITZ-PRIMCELL_END
 WIGNER-SEITZ-CONVCELL
           4
 -0.2649495E+01  0.4597685E+01 -0.4708646E+01  -0.3278435E+00 -0.1009766E-15 -0.9447320E+00
 -0.8368112E+00  0.4597685E+01 -0.5337688E+01  -0.3278435E+00 -0.1009766E-15 -0.9447320E+00
 -0.8368112E+00 -0.4597685E+01 -0.5337688E+01  -0.3278435E+00 -0.1009766E-15 -0.9447320E+00
 -0.2649495E+01 -0.4597685E+01 -0.4708646E+01  -0.3278435E+00 -0.1009766E-15 -0.9447320E+00
           4
 -0.2649495E+01  0.4597685E+01 -0.4708646E+01  -0.1000000E+01  0.4829488E-16  0.4554862E-32
 -0.2649495E+01 -0.4597685E+01 -0.4708646E+01  -0.1000000E+01  0.4829488E-16  0.4554862E-32
 -0.2649495E+01 -0.4597685E+01  0.4708646E+01  -0.1000000E+01  0.4829488E-16  0.4554862E-32
 -0.2649495E+01  0.4597685E+01  0.4708646E+01  -0.1000000E+01  0.4829488E-16  0.4554862E-32
           6
  0.2649495E+01 -0.4597685E+01  0.4708646E+01  -0.0000000E+00 -0.1000000E+01  0.1065828E-14
  0.8368112E+00 -0.4597685E+01  0.5337688E+01  -0.0000000E+00 -0.1000000E+01  0.1065828E-14
 -0.2649495E+01 -0.4597685E+01  0.4708646E+01  -0.0000000E+00 -0.1000000E+01  0.1065828E-14
 -0.2649495E+01 -0.4597685E+01 -0.4708646E+01  -0.0000000E+00 -0.1000000E+01  0.1065828E-14
 -0.8368112E+00 -0.4597685E+01 -0.5337688E+01  -0.0000000E+00 -0.1000000E+01  0.1065828E-14
  0.2649495E+01 -0.4597685E+01 -0.4708646E+01  -0.0000000E+00 -0.1000000E+01  0.1065828E-14
           4
  0.2649495E+01 -0.4597685E+01 -0.4708646E+01   0.1775651E+00 -0.2181216E-15 -0.9841091E+00
 -0.8368112E+00 -0.4597685E+01 -0.5337688E+01   0.1775651E+00 -0.2181216E-15 -0.9841091E+00
 -0.8368112E+00  0.4597685E+01 -0.5337688E+01   0.1775651E+00 -0.2181216E-15 -0.9841091E+00
  0.2649495E+01  0.4597685E+01 -0.4708646E+01   0.1775651E+00 -0.2181216E-15 -0.9841091E+00
           4
 -0.2649495E+01  0.4597685E+01  0.4708646E+01  -0.1775651E+00 -0.0000000E+00  0.9841091E+00
 -0.2649495E+01 -0.4597685E+01  0.4708646E+01  -0.1775651E+00 -0.0000000E+00  0.9841091E+00
  0.8368112E+00 -0.4597685E+01  0.5337688E+01  -0.1775651E+00 -0.0000000E+00  0.9841091E+00
  0.8368112E+00  0.4597685E+01  0.5337688E+01  -0.1775651E+00 -0.0000000E+00  0.9841091E+00
           6
  0.2649495E+01  0.4597685E+01 -0.4708646E+01   0.0000000E+00  0.1000000E+01  0.1065828E-14
 -0.8368112E+00  0.4597685E+01 -0.5337688E+01   0.0000000E+00  0.1000000E+01  0.1065828E-14
 -0.2649495E+01  0.4597685E+01 -0.4708646E+01   0.0000000E+00  0.1000000E+01  0.1065828E-14
 -0.2649495E+01  0.4597685E+01  0.4708646E+01   0.0000000E+00  0.1000000E+01  0.1065828E-14
  0.8368112E+00  0.4597685E+01  0.5337688E+01   0.0000000E+00  0.1000000E+01  0.1065828E-14
  0.2649495E+01  0.4597685E+01  0.4708646E+01   0.0000000E+00  0.1000000E+01  0.1065828E-14
           4
  0.2649495E+01  0.4597685E+01  0.4708646E+01   0.1000000E+01 -0.4829488E-16  0.0000000E+00
  0.2649495E+01 -0.4597685E+01  0.4708646E+01   0.1000000E+01 -0.4829488E-16  0.0000000E+00
  0.2649495E+01 -0.4597685E+01 -0.4708646E+01   0.1000000E+01 -0.4829488E-16  0.0000000E+00
  0.2649495E+01  0.4597685E+01 -0.4708646E+01   0.1000000E+01 -0.4829488E-16  0.0000000E+00
           4
  0.8368112E+00 -0.4597685E+01  0.5337688E+01   0.3278435E+00  0.3334111E-16  0.9447320E+00
  0.2649495E+01 -0.4597685E+01  0.4708646E+01   0.3278435E+00  0.3334111E-16  0.9447320E+00
  0.2649495E+01  0.4597685E+01  0.4708646E+01   0.3278435E+00  0.3334111E-16  0.9447320E+00
  0.8368112E+00  0.4597685E+01  0.5337688E+01   0.3278435E+00  0.3334111E-16  0.9447320E+00
 WIGNER-SEITZ-CONVCELL_END
 BRILLOUIN-ZONE-PRIMCELL
           4
  0.1002657E+00  0.5437520E-01 -0.1571907E-01   0.9447320E+00  0.5532186E-16 -0.3278435E+00
  0.1002657E+00 -0.5437520E-01 -0.1571907E-01   0.9447320E+00  0.5532186E-16 -0.3278435E+00
  0.8844948E-01 -0.5437520E-01 -0.4976940E-01   0.9447320E+00  0.5532186E-16 -0.3278435E+00
  0.8844948E-01  0.5437520E-01 -0.4976940E-01   0.9447320E+00  0.5532186E-16 -0.3278435E+00
           4
 -0.8844948E-01  0.5437520E-01 -0.4976940E-01   0.0000000E+00 -0.5426985E-16 -0.1000000E+01
  0.8844948E-01  0.5437520E-01 -0.4976940E-01   0.0000000E+00 -0.5426985E-16 -0.1000000E+01
  0.8844948E-01 -0.5437520E-01 -0.4976940E-01   0.0000000E+00 -0.5426985E-16 -0.1000000E+01
 -0.8844948E-01 -0.5437520E-01 -0.4976940E-01   0.0000000E+00 -0.5426985E-16 -0.1000000E+01
           6
  0.8844948E-01 -0.5437520E-01  0.4976940E-01   0.0000000E+00 -0.1000000E+01  0.2879941E-15
 -0.8844948E-01 -0.5437520E-01  0.4976940E-01   0.0000000E+00 -0.1000000E+01  0.2879941E-15
 -0.1002657E+00 -0.5437520E-01  0.1571907E-01   0.0000000E+00 -0.1000000E+01  0.2879941E-15
 -0.8844948E-01 -0.5437520E-01 -0.4976940E-01   0.0000000E+00 -0.1000000E+01  0.2879941E-15
  0.8844948E-01 -0.5437520E-01 -0.4976940E-01   0.0000000E+00 -0.1000000E+01  0.2879941E-15
  0.1002657E+00 -0.5437520E-01 -0.1571907E-01   0.0000000E+00 -0.1000000E+01  0.2879941E-15
           4
  0.8844948E-01  0.5437520E-01  0.4976940E-01   0.9841091E+00 -0.3370857E-15  0.1775651E+00
  0.8844948E-01 -0.5437520E-01  0.4976940E-01   0.9841091E+00 -0.3370857E-15  0.1775651E+00
  0.1002657E+00 -0.5437520E-01 -0.1571907E-01   0.9841091E+00 -0.3370857E-15  0.1775651E+00
  0.1002657E+00  0.5437520E-01 -0.1571907E-01   0.9841091E+00 -0.3370857E-15  0.1775651E+00
           4
 -0.8844948E-01  0.5437520E-01 -0.4976940E-01  -0.9841091E+00 -0.1498159E-15 -0.1775651E+00
 -0.8844948E-01 -0.5437520E-01 -0.4976940E-01  -0.9841091E+00 -0.1498159E-15 -0.1775651E+00
 -0.1002657E+00 -0.5437520E-01  0.1571907E-01  -0.9841091E+00 -0.1498159E-15 -0.1775651E+00
 -0.1002657E+00  0.5437520E-01  0.1571907E-01  -0.9841091E+00 -0.1498159E-15 -0.1775651E+00
           6
  0.1002657E+00  0.5437520E-01 -0.1571907E-01  -0.0000000E+00  0.1000000E+01  0.2879941E-15
  0.8844948E-01  0.5437520E-01 -0.4976940E-01  -0.0000000E+00  0.1000000E+01  0.2879941E-15
 -0.8844948E-01  0.5437520E-01 -0.4976940E-01  -0.0000000E+00  0.1000000E+01  0.2879941E-15
 -0.1002657E+00  0.5437520E-01  0.1571907E-01  -0.0000000E+00  0.1000000E+01  0.2879941E-15
 -0.8844948E-01  0.5437520E-01  0.4976940E-01  -0.0000000E+00  0.1000000E+01  0.2879941E-15
  0.8844948E-01  0.5437520E-01  0.4976940E-01  -0.0000000E+00  0.1000000E+01  0.2879941E-15
           4
  0.8844948E-01 -0.5437520E-01  0.4976940E-01  -0.0000000E+00 -0.0000000E+00  0.1000000E+01
  0.8844948E-01  0.5437520E-01  0.4976940E-01  -0.0000000E+00 -0.0000000E+00  0.1000000E+01
 -0.8844948E-01  0.5437520E-01  0.4976940E-01  -0.0000000E+00 -0.0000000E+00  0.1000000E+01
 -0.8844948E-01 -0.5437520E-01  0.4976940E-01  -0.0000000E+00 -0.0000000E+00  0.1000000E+01
           4
 -0.1002657E+00  0.5437520E-01  0.1571907E-01  -0.9447320E+00 -0.1383046E-15  0.3278435E+00
 -0.1002657E+00 -0.5437520E-01  0.1571907E-01  -0.9447320E+00 -0.1383046E-15  0.3278435E+00
 -0.8844948E-01 -0.5437520E-01  0.4976940E-01  -0.9447320E+00 -0.1383046E-15  0.3278435E+00
 -0.8844948E-01  0.5437520E-01  0.4976940E-01  -0.9447320E+00 -0.1383046E-15  0.3278435E+00
 BRILLOUIN-ZONE-PRIMCELL_END
 BRILLOUIN-ZONE-CONVCELL
           4
  0.1002657E+00  0.5437520E-01 -0.1571907E-01   0.9447320E+00  0.5532186E-16 -0.3278435E+00
  0.1002657E+00 -0.5437520E-01 -0.1571907E-01   0.9447320E+00  0.5532186E-16 -0.3278435E+00
  0.8844948E-01 -0.5437520E-01 -0.4976940E-01   0.9447320E+00  0.5532186E-16 -0.3278435E+00
  0.8844948E-01  0.5437520E-01 -0.4976940E-01   0.9447320E+00  0.5532186E-16 -0.3278435E+00
           4
 -0.8844948E-01  0.5437520E-01 -0.4976940E-01   0.0000000E+00 -0.5426985E-16 -0.1000000E+01
  0.8844948E-01  0.5437520E-01 -0.4976940E-01   0.0000000E+00 -0.5426985E-16 -0.1000000E+01
  0.8844948E-01 -0.5437520E-01 -0.4976940E-01   0.0000000E+00 -0.5426985E-16 -0.1000000E+01
 -0.8844948E-01 -0.5437520E-01 -0.4976940E-01   0.0000000E+00 -0.5426985E-16 -0.1000000E+01
           6
  0.8844948E-01 -0.5437520E-01  0.4976940E-01   0.0000000E+00 -0.1000000E+01  0.2879941E-15
 -0.8844948E-01 -0.5437520E-01  0.4976940E-01   0.0000000E+00 -0.1000000E+01  0.2879941E-15
 -0.1002657E+00 -0.5437520E-01  0.1571907E-01   0.0000000E+00 -0.1000000E+01  0.2879941E-15
 -0.8844948E-01 -0.5437520E-01 -0.4976940E-01   0.0000000E+00 -0.1000000E+01  0.2879941E-15
  0.8844948E-01 -0.5437520E-01 -0.4976940E-01   0.0000000E+00 -0.1000000E+01  0.2879941E-15
  0.1002657E+00 -0.5437520E-01 -0.1571907E-01   0.0000000E+00 -0.1000000E+01  0.2879941E-15
           4
  0.8844948E-01  0.5437520E-01  0.4976940E-01   0.9841091E+00 -0.3370857E-15  0.1775651E+00
  0.8844948E-01 -0.5437520E-01  0.4976940E-01   0.9841091E+00 -0.3370857E-15  0.1775651E+00
  0.1002657E+00 -0.5437520E-01 -0.1571907E-01   0.9841091E+00 -0.3370857E-15  0.1775651E+00
  0.1002657E+00  0.5437520E-01 -0.1571907E-01   0.9841091E+00 -0.3370857E-15  0.1775651E+00
           4
 -0.8844948E-01  0.5437520E-01 -0.4976940E-01  -0.9841091E+00 -0.1498159E-15 -0.1775651E+00
 -0.8844948E-01 -0.5437520E-01 -0.4976940E-01  -0.9841091E+00 -0.1498159E-15 -0.1775651E+00
 -0.1002657E+00 -0.5437520E-01  0.1571907E-01  -0.9841091E+00 -0.1498159E-15 -0.1775651E+00
 -0.1002657E+00  0.5437520E-01  0.1571907E-01  -0.9841091E+00 -0.1498159E-15 -0.1775651E+00
           6
  0.1002657E+00  0.5437520E-01 -0.1571907E-01  -0.0000000E+00  0.1000000E+01  0.2879941E-15
  0.8844948E-01  0.5437520E-01 -0.4976940E-01  -0.0000000E+00  0.1000000E+01  0.2879941E-15
 -0.8844948E-01  0.5437520E-01 -0.4976940E-01  -0.0000000E+00  0.1000000E+01  0.2879941E-15
 -0.1002657E+00  0.5437520E-01  0.1571907E-01  -0.0000000E+00  0.1000000E+01  0.2879941E-15
 -0.8844948E-01  0.5437520E-01  0.4976940E-01  -0.0000000E+00  0.1000000E+01  0.2879941E-15
  0.8844948E-01  0.5437520E-01  0.4976940E-01  -0.0000000E+00  0.1000000E+01  0.2879941E-15
           4
  0.8844948E-01 -0.5437520E-01  0.4976940E-01  -0.0000000E+00 -0.0000000E+00  0.1000000E+01
  0.8844948E-01  0.5437520E-01  0.4976940E-01  -0.0000000E+00 -0.0000000E+00  0.1000000E+01
 -0.8844948E-01  0.5437520E-01  0.4976940E-01  -0.0000000E+00 -0.0000000E+00  0.1000000E+01
 -0.8844948E-01 -0.5437520E-01  0.4976940E-01  -0.0000000E+00 -0.0000000E+00  0.1000000E+01
           4
 -0.1002657E+00  0.5437520E-01  0.1571907E-01  -0.9447320E+00 -0.1383046E-15  0.3278435E+00
 -0.1002657E+00 -0.5437520E-01  0.1571907E-01  -0.9447320E+00 -0.1383046E-15  0.3278435E+00
 -0.8844948E-01 -0.5437520E-01  0.4976940E-01  -0.9447320E+00 -0.1383046E-15  0.3278435E+00
 -0.8844948E-01  0.5437520E-01  0.4976940E-01  -0.9447320E+00 -0.1383046E-15  0.3278435E+00
 BRILLOUIN-ZONE-CONVCELL_END
 ATOMS
   19    0.0000000000    4.6476198980    0.0000000000    0.0000000000   -0.0001205100    0.0000000000
   12   -0.9063419100    6.0074149490    5.0231670320    0.0000000000   -0.0000689600    0.0000000000
   12    1.7431531220    4.5405183640    5.0231670320    0.0000000000    0.0000631100    0.0000000000
   12    1.7431531220    7.6472242470    5.0231670320    0.0000000000   -0.0006451700    0.0000000000
   12    1.7431531220    1.7831118180    5.0231670320    0.0000000000   -0.0000261400    0.0000000000
   14    0.0812777230    1.4789748580    2.1416425630   -0.0001778900   -0.0000586900   -0.0000616300
   14    3.4050283920    1.4789748580    7.9046918030    0.0001778900   -0.0000586900    0.0000616300
   14    3.5998343500    7.6582459360    7.7557941880   -0.0000428100   -0.0000690800   -0.0000090100
   14   -0.1135281060    7.6582459360    2.2905398770    0.0000428100   -0.0000690800    0.0000090100
   14    2.5476033760    6.1023028580    2.2860128660   -0.0000648300    0.0003113600    0.0000016900
   14    0.9387028950    6.1023028580    7.7603210480    0.0000648300    0.0003113600   -0.0000016900
   13    0.7437603130    3.0698845780    7.7879293450    0.0001532600    0.0001267500   -0.0002752900
   13    2.7425459300    3.0698845780    2.2584047190   -0.0001532600    0.0001267500    0.0002752900
    8   -0.0322527140    1.3345751450    3.8102982650   -0.0000141200    0.0003696000    0.0000035300
    8    3.5185587460    1.3345751450    6.2360360910    0.0000141200    0.0003696000   -0.0000035300
    8    3.5781843330    7.7955088110    6.1101120390    0.0001548600    0.0000116000    0.0000080200
    8   -0.0918780900    7.7955088110    3.9362220260   -0.0001548600    0.0000116000   -0.0000080200
    8    2.6157076570    6.2149333900    3.9045190640   -0.0000292800   -0.0002942500    0.0001169000
    8    0.8705985860    6.2149333900    6.1418150000    0.0000292800   -0.0002942500   -0.0001169000
    8    0.8204847480    3.0968050690    6.0838240360    0.0003286500    0.0000622400   -0.0003529000
    8    2.6658214950    3.0968050690    3.9625100290   -0.0003286500    0.0000622400    0.0003529000
    8    1.6034149530    1.7937227190    1.6991691350    0.0000421700   -0.0002254400   -0.0002738500
    8    1.8828913450    1.7937227190    8.3471646280   -0.0000421700   -0.0002254400    0.0002738500
    8   -0.2854865380    9.1472997610    1.6054439540   -0.0001948800    0.0000454600   -0.0000380100
    8    2.1845507830    7.0645085980    8.3209569220   -0.0000488400    0.0002799100    0.0003870100
    8    1.3017554600    7.0645085980    1.7253771420    0.0000488400    0.0002799100   -0.0003870100
    8    3.9156920400    6.8401671590    1.6771251350    0.0002359000   -0.0002449800    0.0001117000
    8   -0.4293857970    6.8401671590    8.3692089290   -0.0002359000   -0.0002449800   -0.0001117000
    8    2.4403502970    4.6672604730    1.5691569800   -0.0000235800    0.0001184900    0.0000382000
    8    1.0459557600    4.6672604730    8.4771772350    0.0000235800    0.0001184900   -0.0000382000
    8   -0.8078131220    2.5139130710    8.4664639630   -0.0000942000    0.0004216100   -0.0000008100
    8    4.2941194440    2.5139130710    1.5798701010    0.0000942000    0.0004216100    0.0000008100
    8    0.1020250860    4.8653957260    3.7663245790    0.0001245000    0.0001146900    0.0008197700
    8    3.3842812370    4.8653957260    6.2800094850   -0.0001245000    0.0001146900   -0.0008197700
    8    2.6804224840    0.0601262150    4.0170151650    0.0002624700   -0.0003730500   -0.0000520900
    8    0.8058838140    0.0601262150    6.0293185980   -0.0002624700   -0.0003730500    0.0000520900
    1   -0.4122075020    4.0371913180    3.7398059320   -0.0000967300    0.0001284500    0.0001009500
    1    3.8985139040    4.0371913180    6.3065281320    0.0000967300    0.0001284500   -0.0001009500
    1    2.5996574390    0.3039558000    3.0751656900    0.0002497300   -0.0001586500    0.0002028600
    1    0.8866488040    0.3039558000    6.9711683750   -0.0002497300   -0.0001586500   -0.0002028600
   22   -0.9063419100    0.2262759620    5.0231670320    0.0000000000   -0.0002124300    0.0000000000
   19   -1.8126838200    4.6476198980   10.0463340640    0.0000000000   -0.0001205100    0.0000000000
   19    2.6494950310    9.0977381410    0.0000000000    0.0000000000   -0.0001219400    0.0000000000
   19    0.8368112110    9.0977381410   10.0463340640    0.0000000000   -0.0001219400    0.0000000000
   19    5.2989900630    4.6476198980    0.0000000000    0.0000000000   -0.0001205100    0.0000000000
   12    4.3926481530    6.0074149490    5.0231670320    0.0000000000   -0.0000689600    0.0000000000
    8    3.7717928080    9.1472997610    8.4408899600    0.0001948800    0.0000454600    0.0000380100
   22    4.3926481530    0.2262759620    5.0231670320    0.0000000000   -0.0002124300    0.0000000000
   19    3.4863062430    4.6476198980   10.0463340640    0.0000000000   -0.0001205100    0.0000000000
 FRAMES
1      0.0000000000    0.0000000000    0.0000000000      5.2989900630    0.0000000000    0.0000000000
1      0.0000000000    0.0000000000    0.0000000000      0.0000000000    9.1953692500    0.0000000000
1      0.0000000000    0.0000000000    0.0000000000     -1.8126838200    0.0000000000   10.0463340640
1     -1.8126838200    0.0000000000   10.0463340640      3.4863062430    0.0000000000   10.0463340640
1     -1.8126838200    0.0000000000   10.0463340640     -1.8126838200    9.1953692500   10.0463340640
1      0.0000000000    9.1953692500    0.0000000000      5.2989900630    9.1953692500    0.0000000000
1      0.0000000000    9.1953692500    0.0000000000     -1.8126838200    9.1953692500   10.0463340640
1     -1.8126838200    9.1953692500   10.0463340640      3.4863062430    9.1953692500   10.0463340640
1      5.2989900630    0.0000000000    0.0000000000      5.2989900630    9.1953692500    0.0000000000
1      5.2989900630    0.0000000000    0.0000000000      3.4863062430    0.0000000000   10.0463340640
1      3.4863062430    0.0000000000   10.0463340640      3.4863062430    9.1953692500   10.0463340640
1      5.2989900630    9.1953692500    0.0000000000      3.4863062430    9.1953692500   10.0463340640
