 INFO
nunit      1    1    1
unit   cell
celltype   primcell
shape   parapipedal
 END_INFO
 DIM-GROUP
           3           1
 PRIMVEC
    5.3397445960    0.0000000000    0.0000000000
    0.0000000000    9.2416665260    0.0000000000
   -1.8286814710    0.0000000000   10.2772905460
 CONVVEC
    5.3397445960    0.0000000000    0.0000000000
    0.0000000000    9.2416665260    0.0000000000
   -1.8286814710    0.0000000000   10.2772905460
 PRIMCOORD
          44           1
 19      0.0000000000     4.5112092800     0.0000000000     0.0000000000    -0.0004953100     0.0000000000
 19      2.6698722580     0.0772315600     0.0000000000     0.0000000000     0.0003772300     0.0000000000
 12     -0.9143419530     0.0367709170     5.1386448860     0.0000000000    -0.0000325900     0.0000000000
 12     -0.9143419530     3.0784272530     5.1386448860     0.0000000000     0.0002115100     0.0000000000
 12     -0.9143419530     6.1486618970     5.1386448860     0.0000000000    -0.0000591300     0.0000000000
 12      1.7555303050     4.5595961980     5.1386448860     0.0000000000    -0.0000496800     0.0000000000
 12      1.7555303050     1.6031422240     5.1386448860     0.0000000000    -0.0001336200     0.0000000000
 14      0.0400895150     1.5236129570     2.3331121020    -0.0000858900    -0.0000828700    -0.0002155200
 14      3.4709709870     1.5236129570     7.9441778250     0.0000858900    -0.0000828700     0.0002155200
 14      3.6174544000     7.7086967790     7.8978731610     0.0000902800    -0.0000331000     0.0001023600
 14     -0.1063937960     7.7086967790     2.3794167660    -0.0000902800    -0.0000331000    -0.0001023600
 14      2.5756565940     6.1567650270     2.3545870490    -0.0001240900    -0.0001376400    -0.0000915600
 14      0.9354040710     6.1567650270     7.9227024160     0.0001240900    -0.0001376400     0.0000915600
 13      0.7963017690     3.0577914500     7.9239642770     0.0000536300     0.0001557900     0.0002961100
 13      2.7147587860     3.0577914500     2.3533258040    -0.0000536300     0.0001557900    -0.0002961100
  8     -0.0177265840     1.5084535810     3.9691797260     0.0002735300     0.0000572000    -0.0002961500
  8      3.5287870590     1.5084535810     6.3081103550    -0.0002735300     0.0000572000     0.0002961500
  8      3.6273372090     7.6982932220     6.2797715080     0.0001965500     0.0000608000     0.0004100700
  8     -0.1162765990     7.6982932220     3.9975182650    -0.0001965500     0.0000608000    -0.0004100700
  8      2.6369826060     6.1660660240     3.9849605270     0.0001871600    -0.0001714500    -0.0003050700
  8      0.8740780040     6.1660660240     6.2923292460    -0.0001871600    -0.0001714500     0.0003050700
  8      0.8229914630     3.0775793110     6.1889004790    -0.0001192600    -0.0000310800     0.0004610000
  8      2.6880693070     3.0775793110     4.0883892930     0.0001192600    -0.0000310800    -0.0004610000
  8      1.5196795990     1.8909280450     1.7526255100     0.0001941400     0.0001811400     0.0004949900
  8      1.9913810640     1.8909280450     8.5246639650    -0.0001941400     0.0001811400    -0.0004949900
  8      5.0387087090     9.2198885130     1.7620400760    -0.0003902900    -0.0000438200     0.0003076000
  8     -1.5276481940     9.2198885130     8.5152493890     0.0003902900    -0.0000438200    -0.0003076000
  8      2.1827890650     7.1187352520     8.4817074370    -0.0001232200     0.0001451000    -0.0004208500
  8      1.3282714170     7.1187352520     1.7955821810     0.0001232200     0.0001451000     0.0004208500
  8      3.9909301950     6.8100587790     1.7493667320    -0.0000909800    -0.0002026400     0.0000442900
  8     -0.4798695580     6.8100587790     8.5279228860     0.0000909800    -0.0002026400    -0.0000442900
  8      2.3746287990     4.6858743760     1.7068662700    -0.0002066900    -0.0000854000     0.0003420000
  8      1.1364316230     4.6858743760     8.5704236570     0.0002066900    -0.0000854000    -0.0003420000
  8     -0.7665594880     2.5400166690     8.5819740590     0.0002918800    -0.0001850900    -0.0004836600
  8      4.2776201230     2.5400166690     1.6953160230    -0.0002918800    -0.0001850900     0.0004836600
  8     -0.0193736280     4.6546532690     4.0811402090     0.0000696700     0.0005574200    -0.0000008800
  8      3.5304341830     4.6546532690     6.1961498720    -0.0000696700     0.0005574200     0.0000008800
  8      2.6670361830     0.0192192290     4.0983564060     0.0000937200     0.0000202500    -0.0001740800
  8      0.8440246370     0.0192192290     6.1789330580    -0.0000937200     0.0000202500     0.0001740800
  1     -0.0123037030     4.5781177850     3.1182112060    -0.0000935500     0.0000839400     0.0005225800
  1      3.5233646010     4.5781177850     7.1590782690     0.0000935500     0.0000839400    -0.0005225800
  1      2.5781608490     0.1346475370     3.1405416660    -0.0000511400    -0.0002831900    -0.0001536300
  1      0.9328997060     0.1346475370     7.1367484150     0.0000511400    -0.0002831900     0.0001536300
 26      1.7555303050     7.7194266250     5.1386448860     0.0000000000     0.0001708800     0.0000000000
 CONVCOORD
          44           1
 19      0.0000000000     4.5112092800     0.0000000000
 19      2.6698722580     0.0772315600     0.0000000000
 12     -0.9143419530     0.0367709170     5.1386448860
 12     -0.9143419530     3.0784272530     5.1386448860
 12     -0.9143419530     6.1486618970     5.1386448860
 12      1.7555303050     4.5595961980     5.1386448860
 12      1.7555303050     1.6031422240     5.1386448860
 14      0.0400895150     1.5236129570     2.3331121020
 14      3.4709709870     1.5236129570     7.9441778250
 14      3.6174544000     7.7086967790     7.8978731610
 14     -0.1063937960     7.7086967790     2.3794167660
 14      2.5756565940     6.1567650270     2.3545870490
 14      0.9354040710     6.1567650270     7.9227024160
 13      0.7963017690     3.0577914500     7.9239642770
 13      2.7147587860     3.0577914500     2.3533258040
  8     -0.0177265840     1.5084535810     3.9691797260
  8      3.5287870590     1.5084535810     6.3081103550
  8      3.6273372090     7.6982932220     6.2797715080
  8     -0.1162765990     7.6982932220     3.9975182650
  8      2.6369826060     6.1660660240     3.9849605270
  8      0.8740780040     6.1660660240     6.2923292460
  8      0.8229914630     3.0775793110     6.1889004790
  8      2.6880693070     3.0775793110     4.0883892930
  8      1.5196795990     1.8909280450     1.7526255100
  8      1.9913810640     1.8909280450     8.5246639650
  8     -0.3010358870     9.2198885130     1.7620400760
  8     -1.5276481940     9.2198885130     8.5152493890
  8      2.1827890650     7.1187352520     8.4817074370
  8      1.3282714170     7.1187352520     1.7955821810
  8      3.9909301950     6.8100587790     1.7493667320
  8     -0.4798695580     6.8100587790     8.5279228860
  8      2.3746287990     4.6858743760     1.7068662700
  8      1.1364316230     4.6858743760     8.5704236570
  8     -0.7665594880     2.5400166690     8.5819740590
  8      4.2776201230     2.5400166690     1.6953160230
  8     -0.0193736280     4.6546532690     4.0811402090
  8      3.5304341830     4.6546532690     6.1961498720
  8      2.6670361830     0.0192192290     4.0983564060
  8      0.8440246370     0.0192192290     6.1789330580
  1     -0.0123037030     4.5781177850     3.1182112060
  1      3.5233646010     4.5781177850     7.1590782690
  1      2.5781608490     0.1346475370     3.1405416660
  1      0.9328997060     0.1346475370     7.1367484150
 26      1.7555303050     7.7194266250     5.1386448860
 RECIP-PRIMVEC
    0.1872748747   -0.0000000000    0.0333226050

    0.0000000000    0.1082055923   -0.0000000000

    0.0000000000    0.0000000000    0.0973019100

 RECIP-CONVVEC
    0.1872748747   -0.0000000000    0.0333226050

    0.0000000000    0.1082055923   -0.0000000000

    0.0000000000    0.0000000000    0.0973019100

 WIGNER-SEITZ-PRIMCELL
           4
 -0.2669872E+01  0.4620833E+01 -0.4826276E+01  -0.3232877E+00 -0.8218570E-16 -0.9463007E+00
 -0.8411908E+00  0.4620833E+01 -0.5451014E+01  -0.3232877E+00 -0.8218570E-16 -0.9463007E+00
 -0.8411908E+00 -0.4620833E+01 -0.5451014E+01  -0.3232877E+00 -0.8218570E-16 -0.9463007E+00
 -0.2669872E+01 -0.4620833E+01 -0.4826276E+01  -0.3232877E+00 -0.8218570E-16 -0.9463007E+00
           4
 -0.2669872E+01  0.4620833E+01 -0.4826276E+01  -0.1000000E+01 -0.0000000E+00 -0.0000000E+00
 -0.2669872E+01 -0.4620833E+01 -0.4826276E+01  -0.1000000E+01 -0.0000000E+00 -0.0000000E+00
 -0.2669872E+01 -0.4620833E+01  0.4826276E+01  -0.1000000E+01 -0.0000000E+00 -0.0000000E+00
 -0.2669872E+01  0.4620833E+01  0.4826276E+01  -0.1000000E+01 -0.0000000E+00 -0.0000000E+00
           6
  0.2669872E+01 -0.4620833E+01  0.4826276E+01  -0.0000000E+00 -0.1000000E+01  0.5324902E-15
  0.8411908E+00 -0.4620833E+01  0.5451014E+01  -0.0000000E+00 -0.1000000E+01  0.5324902E-15
 -0.2669872E+01 -0.4620833E+01  0.4826276E+01  -0.0000000E+00 -0.1000000E+01  0.5324902E-15
 -0.2669872E+01 -0.4620833E+01 -0.4826276E+01  -0.0000000E+00 -0.1000000E+01  0.5324902E-15
 -0.8411908E+00 -0.4620833E+01 -0.5451014E+01  -0.0000000E+00 -0.1000000E+01  0.5324902E-15
  0.2669872E+01 -0.4620833E+01 -0.4826276E+01  -0.0000000E+00 -0.1000000E+01  0.5324902E-15
           4
  0.2669872E+01  0.4620833E+01 -0.4826276E+01   0.1751826E+00 -0.2155921E-15 -0.9845360E+00
  0.2669872E+01 -0.4620833E+01 -0.4826276E+01   0.1751826E+00 -0.2155921E-15 -0.9845360E+00
 -0.8411908E+00 -0.4620833E+01 -0.5451014E+01   0.1751826E+00 -0.2155921E-15 -0.9845360E+00
 -0.8411908E+00  0.4620833E+01 -0.5451014E+01   0.1751826E+00 -0.2155921E-15 -0.9845360E+00
           4
  0.8411908E+00  0.4620833E+01  0.5451014E+01  -0.1751826E+00  0.1516565E-15  0.9845360E+00
 -0.2669872E+01  0.4620833E+01  0.4826276E+01  -0.1751826E+00  0.1516565E-15  0.9845360E+00
 -0.2669872E+01 -0.4620833E+01  0.4826276E+01  -0.1751826E+00  0.1516565E-15  0.9845360E+00
  0.8411908E+00 -0.4620833E+01  0.5451014E+01  -0.1751826E+00  0.1516565E-15  0.9845360E+00
           6
  0.2669872E+01  0.4620833E+01 -0.4826276E+01   0.0000000E+00  0.1000000E+01 -0.0000000E+00
 -0.8411908E+00  0.4620833E+01 -0.5451014E+01   0.0000000E+00  0.1000000E+01 -0.0000000E+00
 -0.2669872E+01  0.4620833E+01 -0.4826276E+01   0.0000000E+00  0.1000000E+01 -0.0000000E+00
 -0.2669872E+01  0.4620833E+01  0.4826276E+01   0.0000000E+00  0.1000000E+01 -0.0000000E+00
  0.8411908E+00  0.4620833E+01  0.5451014E+01   0.0000000E+00  0.1000000E+01 -0.0000000E+00
  0.2669872E+01  0.4620833E+01  0.4826276E+01   0.0000000E+00  0.1000000E+01 -0.0000000E+00
           4
  0.2669872E+01  0.4620833E+01  0.4826276E+01   0.1000000E+01  0.0000000E+00  0.0000000E+00
  0.2669872E+01 -0.4620833E+01  0.4826276E+01   0.1000000E+01  0.0000000E+00  0.0000000E+00
  0.2669872E+01 -0.4620833E+01 -0.4826276E+01   0.1000000E+01  0.0000000E+00  0.0000000E+00
  0.2669872E+01  0.4620833E+01 -0.4826276E+01   0.1000000E+01  0.0000000E+00  0.0000000E+00
           4
  0.8411908E+00 -0.4620833E+01  0.5451014E+01   0.3232877E+00 -0.1852360E-16  0.9463007E+00
  0.2669872E+01 -0.4620833E+01  0.4826276E+01   0.3232877E+00 -0.1852360E-16  0.9463007E+00
  0.2669872E+01  0.4620833E+01  0.4826276E+01   0.3232877E+00 -0.1852360E-16  0.9463007E+00
  0.8411908E+00  0.4620833E+01  0.5451014E+01   0.3232877E+00 -0.1852360E-16  0.9463007E+00
 WIGNER-SEITZ-PRIMCELL_END
 WIGNER-SEITZ-CONVCELL
           4
 -0.2669872E+01  0.4620833E+01 -0.4826276E+01  -0.3232877E+00 -0.8218570E-16 -0.9463007E+00
 -0.8411908E+00  0.4620833E+01 -0.5451014E+01  -0.3232877E+00 -0.8218570E-16 -0.9463007E+00
 -0.8411908E+00 -0.4620833E+01 -0.5451014E+01  -0.3232877E+00 -0.8218570E-16 -0.9463007E+00
 -0.2669872E+01 -0.4620833E+01 -0.4826276E+01  -0.3232877E+00 -0.8218570E-16 -0.9463007E+00
           4
 -0.2669872E+01  0.4620833E+01 -0.4826276E+01  -0.1000000E+01 -0.0000000E+00 -0.0000000E+00
 -0.2669872E+01 -0.4620833E+01 -0.4826276E+01  -0.1000000E+01 -0.0000000E+00 -0.0000000E+00
 -0.2669872E+01 -0.4620833E+01  0.4826276E+01  -0.1000000E+01 -0.0000000E+00 -0.0000000E+00
 -0.2669872E+01  0.4620833E+01  0.4826276E+01  -0.1000000E+01 -0.0000000E+00 -0.0000000E+00
           6
  0.2669872E+01 -0.4620833E+01  0.4826276E+01  -0.0000000E+00 -0.1000000E+01  0.5324902E-15
  0.8411908E+00 -0.4620833E+01  0.5451014E+01  -0.0000000E+00 -0.1000000E+01  0.5324902E-15
 -0.2669872E+01 -0.4620833E+01  0.4826276E+01  -0.0000000E+00 -0.1000000E+01  0.5324902E-15
 -0.2669872E+01 -0.4620833E+01 -0.4826276E+01  -0.0000000E+00 -0.1000000E+01  0.5324902E-15
 -0.8411908E+00 -0.4620833E+01 -0.5451014E+01  -0.0000000E+00 -0.1000000E+01  0.5324902E-15
  0.2669872E+01 -0.4620833E+01 -0.4826276E+01  -0.0000000E+00 -0.1000000E+01  0.5324902E-15
           4
  0.2669872E+01  0.4620833E+01 -0.4826276E+01   0.1751826E+00 -0.2155921E-15 -0.9845360E+00
  0.2669872E+01 -0.4620833E+01 -0.4826276E+01   0.1751826E+00 -0.2155921E-15 -0.9845360E+00
 -0.8411908E+00 -0.4620833E+01 -0.5451014E+01   0.1751826E+00 -0.2155921E-15 -0.9845360E+00
 -0.8411908E+00  0.4620833E+01 -0.5451014E+01   0.1751826E+00 -0.2155921E-15 -0.9845360E+00
           4
  0.8411908E+00  0.4620833E+01  0.5451014E+01  -0.1751826E+00  0.1516565E-15  0.9845360E+00
 -0.2669872E+01  0.4620833E+01  0.4826276E+01  -0.1751826E+00  0.1516565E-15  0.9845360E+00
 -0.2669872E+01 -0.4620833E+01  0.4826276E+01  -0.1751826E+00  0.1516565E-15  0.9845360E+00
  0.8411908E+00 -0.4620833E+01  0.5451014E+01  -0.1751826E+00  0.1516565E-15  0.9845360E+00
           6
  0.2669872E+01  0.4620833E+01 -0.4826276E+01   0.0000000E+00  0.1000000E+01 -0.0000000E+00
 -0.8411908E+00  0.4620833E+01 -0.5451014E+01   0.0000000E+00  0.1000000E+01 -0.0000000E+00
 -0.2669872E+01  0.4620833E+01 -0.4826276E+01   0.0000000E+00  0.1000000E+01 -0.0000000E+00
 -0.2669872E+01  0.4620833E+01  0.4826276E+01   0.0000000E+00  0.1000000E+01 -0.0000000E+00
  0.8411908E+00  0.4620833E+01  0.5451014E+01   0.0000000E+00  0.1000000E+01 -0.0000000E+00
  0.2669872E+01  0.4620833E+01  0.4826276E+01   0.0000000E+00  0.1000000E+01 -0.0000000E+00
           4
  0.2669872E+01  0.4620833E+01  0.4826276E+01   0.1000000E+01  0.0000000E+00  0.0000000E+00
  0.2669872E+01 -0.4620833E+01  0.4826276E+01   0.1000000E+01  0.0000000E+00  0.0000000E+00
  0.2669872E+01 -0.4620833E+01 -0.4826276E+01   0.1000000E+01  0.0000000E+00  0.0000000E+00
  0.2669872E+01  0.4620833E+01 -0.4826276E+01   0.1000000E+01  0.0000000E+00  0.0000000E+00
           4
  0.8411908E+00 -0.4620833E+01  0.5451014E+01   0.3232877E+00 -0.1852360E-16  0.9463007E+00
  0.2669872E+01 -0.4620833E+01  0.4826276E+01   0.3232877E+00 -0.1852360E-16  0.9463007E+00
  0.2669872E+01  0.4620833E+01  0.4826276E+01   0.3232877E+00 -0.1852360E-16  0.9463007E+00
  0.8411908E+00  0.4620833E+01  0.5451014E+01   0.3232877E+00 -0.1852360E-16  0.9463007E+00
 WIGNER-SEITZ-CONVCELL_END
 BRILLOUIN-ZONE-PRIMCELL
           4
  0.9932949E-01  0.5410280E-01 -0.1532835E-01   0.9463007E+00  0.2845449E-16 -0.3232877E+00
  0.9932949E-01 -0.5410280E-01 -0.1532835E-01   0.9463007E+00  0.2845449E-16 -0.3232877E+00
  0.8794538E-01 -0.5410280E-01 -0.4865096E-01   0.9463007E+00  0.2845449E-16 -0.3232877E+00
  0.8794538E-01  0.5410280E-01 -0.4865096E-01   0.9463007E+00  0.2845449E-16 -0.3232877E+00
           4
 -0.8794538E-01 -0.5410280E-01 -0.4865096E-01  -0.4557299E-16  0.0000000E+00 -0.1000000E+01
 -0.8794538E-01  0.5410280E-01 -0.4865096E-01  -0.4557299E-16  0.0000000E+00 -0.1000000E+01
  0.8794538E-01  0.5410280E-01 -0.4865096E-01  -0.4557299E-16  0.0000000E+00 -0.1000000E+01
  0.8794538E-01 -0.5410280E-01 -0.4865096E-01  -0.4557299E-16  0.0000000E+00 -0.1000000E+01
           6
  0.8794538E-01 -0.5410280E-01  0.4865096E-01  -0.0000000E+00 -0.1000000E+01  0.0000000E+00
 -0.8794538E-01 -0.5410280E-01  0.4865096E-01  -0.0000000E+00 -0.1000000E+01  0.0000000E+00
 -0.9932949E-01 -0.5410280E-01  0.1532835E-01  -0.0000000E+00 -0.1000000E+01  0.0000000E+00
 -0.8794538E-01 -0.5410280E-01 -0.4865096E-01  -0.0000000E+00 -0.1000000E+01  0.0000000E+00
  0.8794538E-01 -0.5410280E-01 -0.4865096E-01  -0.0000000E+00 -0.1000000E+01  0.0000000E+00
  0.9932949E-01 -0.5410280E-01 -0.1532835E-01  -0.0000000E+00 -0.1000000E+01  0.0000000E+00
           4
  0.8794538E-01  0.5410280E-01  0.4865096E-01   0.9845360E+00  0.6938493E-16  0.1751826E+00
  0.8794538E-01 -0.5410280E-01  0.4865096E-01   0.9845360E+00  0.6938493E-16  0.1751826E+00
  0.9932949E-01 -0.5410280E-01 -0.1532835E-01   0.9845360E+00  0.6938493E-16  0.1751826E+00
  0.9932949E-01  0.5410280E-01 -0.1532835E-01   0.9845360E+00  0.6938493E-16  0.1751826E+00
           4
 -0.9932949E-01  0.5410280E-01  0.1532835E-01  -0.9845360E+00 -0.1844410E-15 -0.1751826E+00
 -0.8794538E-01  0.5410280E-01 -0.4865096E-01  -0.9845360E+00 -0.1844410E-15 -0.1751826E+00
 -0.8794538E-01 -0.5410280E-01 -0.4865096E-01  -0.9845360E+00 -0.1844410E-15 -0.1751826E+00
 -0.9932949E-01 -0.5410280E-01  0.1532835E-01  -0.9845360E+00 -0.1844410E-15 -0.1751826E+00
           6
  0.9932949E-01  0.5410280E-01 -0.1532835E-01   0.0000000E+00  0.1000000E+01 -0.2959704E-15
  0.8794538E-01  0.5410280E-01 -0.4865096E-01   0.0000000E+00  0.1000000E+01 -0.2959704E-15
 -0.8794538E-01  0.5410280E-01 -0.4865096E-01   0.0000000E+00  0.1000000E+01 -0.2959704E-15
 -0.9932949E-01  0.5410280E-01  0.1532835E-01   0.0000000E+00  0.1000000E+01 -0.2959704E-15
 -0.8794538E-01  0.5410280E-01  0.4865096E-01   0.0000000E+00  0.1000000E+01 -0.2959704E-15
  0.8794538E-01  0.5410280E-01  0.4865096E-01   0.0000000E+00  0.1000000E+01 -0.2959704E-15
           4
  0.8794538E-01 -0.5410280E-01  0.4865096E-01  -0.0000000E+00  0.9114598E-16  0.1000000E+01
  0.8794538E-01  0.5410280E-01  0.4865096E-01  -0.0000000E+00  0.9114598E-16  0.1000000E+01
 -0.8794538E-01  0.5410280E-01  0.4865096E-01  -0.0000000E+00  0.9114598E-16  0.1000000E+01
 -0.8794538E-01 -0.5410280E-01  0.4865096E-01  -0.0000000E+00  0.9114598E-16  0.1000000E+01
           4
 -0.9932949E-01  0.5410280E-01  0.1532835E-01  -0.9463007E+00  0.8536347E-16  0.3232877E+00
 -0.9932949E-01 -0.5410280E-01  0.1532835E-01  -0.9463007E+00  0.8536347E-16  0.3232877E+00
 -0.8794538E-01 -0.5410280E-01  0.4865096E-01  -0.9463007E+00  0.8536347E-16  0.3232877E+00
 -0.8794538E-01  0.5410280E-01  0.4865096E-01  -0.9463007E+00  0.8536347E-16  0.3232877E+00
 BRILLOUIN-ZONE-PRIMCELL_END
 BRILLOUIN-ZONE-CONVCELL
           4
  0.9932949E-01  0.5410280E-01 -0.1532835E-01   0.9463007E+00  0.2845449E-16 -0.3232877E+00
  0.9932949E-01 -0.5410280E-01 -0.1532835E-01   0.9463007E+00  0.2845449E-16 -0.3232877E+00
  0.8794538E-01 -0.5410280E-01 -0.4865096E-01   0.9463007E+00  0.2845449E-16 -0.3232877E+00
  0.8794538E-01  0.5410280E-01 -0.4865096E-01   0.9463007E+00  0.2845449E-16 -0.3232877E+00
           4
 -0.8794538E-01 -0.5410280E-01 -0.4865096E-01  -0.4557299E-16  0.0000000E+00 -0.1000000E+01
 -0.8794538E-01  0.5410280E-01 -0.4865096E-01  -0.4557299E-16  0.0000000E+00 -0.1000000E+01
  0.8794538E-01  0.5410280E-01 -0.4865096E-01  -0.4557299E-16  0.0000000E+00 -0.1000000E+01
  0.8794538E-01 -0.5410280E-01 -0.4865096E-01  -0.4557299E-16  0.0000000E+00 -0.1000000E+01
           6
  0.8794538E-01 -0.5410280E-01  0.4865096E-01  -0.0000000E+00 -0.1000000E+01  0.0000000E+00
 -0.8794538E-01 -0.5410280E-01  0.4865096E-01  -0.0000000E+00 -0.1000000E+01  0.0000000E+00
 -0.9932949E-01 -0.5410280E-01  0.1532835E-01  -0.0000000E+00 -0.1000000E+01  0.0000000E+00
 -0.8794538E-01 -0.5410280E-01 -0.4865096E-01  -0.0000000E+00 -0.1000000E+01  0.0000000E+00
  0.8794538E-01 -0.5410280E-01 -0.4865096E-01  -0.0000000E+00 -0.1000000E+01  0.0000000E+00
  0.9932949E-01 -0.5410280E-01 -0.1532835E-01  -0.0000000E+00 -0.1000000E+01  0.0000000E+00
           4
  0.8794538E-01  0.5410280E-01  0.4865096E-01   0.9845360E+00  0.6938493E-16  0.1751826E+00
  0.8794538E-01 -0.5410280E-01  0.4865096E-01   0.9845360E+00  0.6938493E-16  0.1751826E+00
  0.9932949E-01 -0.5410280E-01 -0.1532835E-01   0.9845360E+00  0.6938493E-16  0.1751826E+00
  0.9932949E-01  0.5410280E-01 -0.1532835E-01   0.9845360E+00  0.6938493E-16  0.1751826E+00
           4
 -0.9932949E-01  0.5410280E-01  0.1532835E-01  -0.9845360E+00 -0.1844410E-15 -0.1751826E+00
 -0.8794538E-01  0.5410280E-01 -0.4865096E-01  -0.9845360E+00 -0.1844410E-15 -0.1751826E+00
 -0.8794538E-01 -0.5410280E-01 -0.4865096E-01  -0.9845360E+00 -0.1844410E-15 -0.1751826E+00
 -0.9932949E-01 -0.5410280E-01  0.1532835E-01  -0.9845360E+00 -0.1844410E-15 -0.1751826E+00
           6
  0.9932949E-01  0.5410280E-01 -0.1532835E-01   0.0000000E+00  0.1000000E+01 -0.2959704E-15
  0.8794538E-01  0.5410280E-01 -0.4865096E-01   0.0000000E+00  0.1000000E+01 -0.2959704E-15
 -0.8794538E-01  0.5410280E-01 -0.4865096E-01   0.0000000E+00  0.1000000E+01 -0.2959704E-15
 -0.9932949E-01  0.5410280E-01  0.1532835E-01   0.0000000E+00  0.1000000E+01 -0.2959704E-15
 -0.8794538E-01  0.5410280E-01  0.4865096E-01   0.0000000E+00  0.1000000E+01 -0.2959704E-15
  0.8794538E-01  0.5410280E-01  0.4865096E-01   0.0000000E+00  0.1000000E+01 -0.2959704E-15
           4
  0.8794538E-01 -0.5410280E-01  0.4865096E-01  -0.0000000E+00  0.9114598E-16  0.1000000E+01
  0.8794538E-01  0.5410280E-01  0.4865096E-01  -0.0000000E+00  0.9114598E-16  0.1000000E+01
 -0.8794538E-01  0.5410280E-01  0.4865096E-01  -0.0000000E+00  0.9114598E-16  0.1000000E+01
 -0.8794538E-01 -0.5410280E-01  0.4865096E-01  -0.0000000E+00  0.9114598E-16  0.1000000E+01
           4
 -0.9932949E-01  0.5410280E-01  0.1532835E-01  -0.9463007E+00  0.8536347E-16  0.3232877E+00
 -0.9932949E-01 -0.5410280E-01  0.1532835E-01  -0.9463007E+00  0.8536347E-16  0.3232877E+00
 -0.8794538E-01 -0.5410280E-01  0.4865096E-01  -0.9463007E+00  0.8536347E-16  0.3232877E+00
 -0.8794538E-01  0.5410280E-01  0.4865096E-01  -0.9463007E+00  0.8536347E-16  0.3232877E+00
 BRILLOUIN-ZONE-CONVCELL_END
 ATOMS
   19    0.0000000000    4.5112092800    0.0000000000    0.0000000000   -0.0004953100    0.0000000000
   19    2.6698722580    0.0772315600    0.0000000000    0.0000000000    0.0003772300    0.0000000000
   12   -0.9143419530    0.0367709170    5.1386448860    0.0000000000   -0.0000325900    0.0000000000
   12   -0.9143419530    3.0784272530    5.1386448860    0.0000000000    0.0002115100    0.0000000000
   12   -0.9143419530    6.1486618970    5.1386448860    0.0000000000   -0.0000591300    0.0000000000
   12    1.7555303050    4.5595961980    5.1386448860    0.0000000000   -0.0000496800    0.0000000000
   12    1.7555303050    1.6031422240    5.1386448860    0.0000000000   -0.0001336200    0.0000000000
   14    0.0400895150    1.5236129570    2.3331121020   -0.0000858900   -0.0000828700   -0.0002155200
   14    3.4709709870    1.5236129570    7.9441778250    0.0000858900   -0.0000828700    0.0002155200
   14    3.6174544000    7.7086967790    7.8978731610    0.0000902800   -0.0000331000    0.0001023600
   14   -0.1063937960    7.7086967790    2.3794167660   -0.0000902800   -0.0000331000   -0.0001023600
   14    2.5756565940    6.1567650270    2.3545870490   -0.0001240900   -0.0001376400   -0.0000915600
   14    0.9354040710    6.1567650270    7.9227024160    0.0001240900   -0.0001376400    0.0000915600
   13    0.7963017690    3.0577914500    7.9239642770    0.0000536300    0.0001557900    0.0002961100
   13    2.7147587860    3.0577914500    2.3533258040   -0.0000536300    0.0001557900   -0.0002961100
    8   -0.0177265840    1.5084535810    3.9691797260    0.0002735300    0.0000572000   -0.0002961500
    8    3.5287870590    1.5084535810    6.3081103550   -0.0002735300    0.0000572000    0.0002961500
    8    3.6273372090    7.6982932220    6.2797715080    0.0001965500    0.0000608000    0.0004100700
    8   -0.1162765990    7.6982932220    3.9975182650   -0.0001965500    0.0000608000   -0.0004100700
    8    2.6369826060    6.1660660240    3.9849605270    0.0001871600   -0.0001714500   -0.0003050700
    8    0.8740780040    6.1660660240    6.2923292460   -0.0001871600   -0.0001714500    0.0003050700
    8    0.8229914630    3.0775793110    6.1889004790   -0.0001192600   -0.0000310800    0.0004610000
    8    2.6880693070    3.0775793110    4.0883892930    0.0001192600   -0.0000310800   -0.0004610000
    8    1.5196795990    1.8909280450    1.7526255100    0.0001941400    0.0001811400    0.0004949900
    8    1.9913810640    1.8909280450    8.5246639650   -0.0001941400    0.0001811400   -0.0004949900
    8   -0.3010358870    9.2198885130    1.7620400760   -0.0003902900   -0.0000438200    0.0003076000
    8    2.1827890650    7.1187352520    8.4817074370   -0.0001232200    0.0001451000   -0.0004208500
    8    1.3282714170    7.1187352520    1.7955821810    0.0001232200    0.0001451000    0.0004208500
    8    3.9909301950    6.8100587790    1.7493667320   -0.0000909800   -0.0002026400    0.0000442900
    8   -0.4798695580    6.8100587790    8.5279228860    0.0000909800   -0.0002026400   -0.0000442900
    8    2.3746287990    4.6858743760    1.7068662700   -0.0002066900   -0.0000854000    0.0003420000
    8    1.1364316230    4.6858743760    8.5704236570    0.0002066900   -0.0000854000   -0.0003420000
    8   -0.7665594880    2.5400166690    8.5819740590    0.0002918800   -0.0001850900   -0.0004836600
    8    4.2776201230    2.5400166690    1.6953160230   -0.0002918800   -0.0001850900    0.0004836600
    8   -0.0193736280    4.6546532690    4.0811402090    0.0000696700    0.0005574200   -0.0000008800
    8    3.5304341830    4.6546532690    6.1961498720   -0.0000696700    0.0005574200    0.0000008800
    8    2.6670361830    0.0192192290    4.0983564060    0.0000937200    0.0000202500   -0.0001740800
    8    0.8440246370    0.0192192290    6.1789330580   -0.0000937200    0.0000202500    0.0001740800
    1   -0.0123037030    4.5781177850    3.1182112060   -0.0000935500    0.0000839400    0.0005225800
    1    3.5233646010    4.5781177850    7.1590782690    0.0000935500    0.0000839400   -0.0005225800
    1    2.5781608490    0.1346475370    3.1405416660   -0.0000511400   -0.0002831900   -0.0001536300
    1    0.9328997060    0.1346475370    7.1367484150    0.0000511400   -0.0002831900    0.0001536300
   26    1.7555303050    7.7194266250    5.1386448860    0.0000000000    0.0001708800    0.0000000000
   19   -1.8286814710    4.5112092800   10.2772905460    0.0000000000   -0.0004953100    0.0000000000
   19    0.8411907870    0.0772315600   10.2772905460    0.0000000000    0.0003772300    0.0000000000
   19    5.3397445960    4.5112092800    0.0000000000    0.0000000000   -0.0004953100    0.0000000000
   12    4.4254026430    0.0367709170    5.1386448860    0.0000000000   -0.0000325900    0.0000000000
   12    4.4254026430    3.0784272530    5.1386448860    0.0000000000    0.0002115100    0.0000000000
   12    4.4254026430    6.1486618970    5.1386448860    0.0000000000   -0.0000591300    0.0000000000
    8    3.8120964020    9.2198885130    8.5152493890    0.0003902900   -0.0000438200   -0.0003076000
   19    3.5110631250    4.5112092800   10.2772905460    0.0000000000   -0.0004953100    0.0000000000
 FRAMES
1      0.0000000000    0.0000000000    0.0000000000      5.3397445960    0.0000000000    0.0000000000
1      0.0000000000    0.0000000000    0.0000000000      0.0000000000    9.2416665260    0.0000000000
1      0.0000000000    0.0000000000    0.0000000000     -1.8286814710    0.0000000000   10.2772905460
1     -1.8286814710    0.0000000000   10.2772905460      3.5110631250    0.0000000000   10.2772905460
1     -1.8286814710    0.0000000000   10.2772905460     -1.8286814710    9.2416665260   10.2772905460
1      0.0000000000    9.2416665260    0.0000000000      5.3397445960    9.2416665260    0.0000000000
1      0.0000000000    9.2416665260    0.0000000000     -1.8286814710    9.2416665260   10.2772905460
1     -1.8286814710    9.2416665260   10.2772905460      3.5110631250    9.2416665260   10.2772905460
1      5.3397445960    0.0000000000    0.0000000000      5.3397445960    9.2416665260    0.0000000000
1      5.3397445960    0.0000000000    0.0000000000      3.5110631250    0.0000000000   10.2772905460
1      3.5110631250    0.0000000000   10.2772905460      3.5110631250    9.2416665260   10.2772905460
1      5.3397445960    9.2416665260    0.0000000000      3.5110631250    9.2416665260   10.2772905460
