 INFO
nunit      1    1    1
unit   cell
celltype   primcell
shape   parapipedal
 END_INFO
 DIM-GROUP
           3           1
 PRIMVEC
    5.2989900630    0.0000000000    0.0000000000
    0.0000000000    9.1953692500    0.0000000000
   -1.8126838200    0.0000000000   10.0463340640
 CONVVEC
    5.2989900630    0.0000000000    0.0000000000
    0.0000000000    9.1953692500    0.0000000000
   -1.8126838200    0.0000000000   10.0463340640
 PRIMCOORD
          44           1
 19      0.0000000000     4.5371038840     0.0000000000     0.0000000000     0.0006031400     0.0000000000
 19      2.6494950310     0.0378847200     0.0000000000     0.0000000000    -0.0008420600     0.0000000000
 12     -0.9063419100     3.0807480270     5.0231670320     0.0000000000    -0.0007665400     0.0000000000
 12     -0.9063419100     6.0928959760     5.0231670320     0.0000000000     0.0008525800     0.0000000000
 12      1.7431531220     4.5345220140     5.0231670320     0.0000000000    -0.0003516000     0.0000000000
 12      1.7431531220     7.6532648900     5.0231670320     0.0000000000     0.0007064100     0.0000000000
 12      1.7431531220     1.6099433940     5.0231670320     0.0000000000    -0.0009334400     0.0000000000
 14      0.0482506050     1.5312155330     2.2108774970     0.0001831100     0.0002702600    -0.0002209200
 14      3.4380555090     1.5312155330     7.8354568690    -0.0001831100     0.0002702600     0.0002209200
 14      3.5443595730     7.6631242830     7.7679142450     0.0001875300     0.0002224100     0.0001612400
 14     -0.0580533300     7.6631242830     2.2784198190    -0.0001875300     0.0002224100    -0.0001612400
 14      2.5821288620     6.1294375270     2.2605200700    -0.0000183600    -0.0003696900    -0.0002670500
 14      0.9041774080     6.1294375270     7.7858138440     0.0000183600    -0.0003696900     0.0002670500
 13      0.7899533750     3.0447688730     7.8094083220    -0.0000252600     0.0003215600     0.0002824200
 13      2.6963528680     3.0447688730     2.2369257420     0.0000252600     0.0003215600    -0.0002824200
  8      0.0038431260     1.5720402650     3.8439002790     0.0003523500     0.0000387600     0.0000210600
  8      3.4824629060     1.5720402650     6.2024340770    -0.0003523500     0.0000387600    -0.0000210600
  8      3.5015544060     7.5963684670     6.1497322960    -0.0002218200    -0.0004769100    -0.0000421100
  8     -0.0152481620     7.5963684670     3.8966017690     0.0002218200    -0.0004769100     0.0000421100
  8      2.6147470750     6.1547570790     3.8879437930     0.0001775600    -0.0002204000    -0.0000813500
  8      0.8715591680     6.1547570790     6.1583902720    -0.0001775600    -0.0002204000     0.0000813500
  8      0.8150290820     3.0648735820     6.0773798600    -0.0002650400     0.0004748100     0.0003782500
  8      2.6712771610     3.0648735820     3.9689542050     0.0002650400     0.0004748100    -0.0003782500
  8      1.5253219790     1.8699100760     1.6263409590     0.0002834700    -0.0001737200     0.0003663500
  8      1.9609843190     1.8699100760     8.4199928040    -0.0002834700    -0.0001737200    -0.0003663500
  8      4.9811605950     9.1720218240     1.6930314800    -0.0000307300     0.0001362900    -0.0008748700
  8     -1.4948543250     9.1720218240     8.3533024340     0.0000307300     0.0001362900     0.0008748700
  8      2.1048476220     7.1282256950     8.3782698190     0.0000670900     0.0000936800    -0.0003934500
  8      1.3814586210     7.1282256950     1.6680642450    -0.0000670900     0.0000936800     0.0003934500
  8      4.0198802460     6.7338051120     1.6667354760     0.0001440400    -0.0001009200     0.0002660900
  8     -0.5335740030     6.7338051120     8.3795985890    -0.0001440400    -0.0001009200    -0.0002660900
  8      2.3355439490     4.6696849660     1.6146549800     0.0007530000     0.0001185000     0.0000611700
  8      1.1507621080     4.6696849660     8.4316792350    -0.0007530000     0.0001185000    -0.0000611700
  8     -0.7670399170     2.5447311530     8.4765863250    -0.0001284700     0.0000648200    -0.0006264300
  8      4.2533462400     2.5447311530     1.5697477400     0.0001284700     0.0000648200     0.0006264300
  8     -0.0154811360     4.6311814760     3.9578843570    -0.0001979300     0.0002157600     0.0004610700
  8      3.5017874590     4.6311814760     6.0884497070     0.0001979300     0.0002157600    -0.0004610700
  8      2.5861137800     9.1936885920     3.9628789540    -0.0004580800    -0.0000787300     0.0006551000
  8      0.9001925180     9.1936885920     6.0834548090     0.0004580800    -0.0000787300    -0.0006551000
  1     -0.0128031810     4.5517927510     2.9957061620     0.0004549700    -0.0004741100     0.0002406800
  1      3.4991095830     4.5517927510     7.0506279030    -0.0004549700    -0.0004741100    -0.0002406800
  1      2.5791933450     0.1105292390     2.9973760700    -0.0009566100    -0.0001261800     0.0002601500
  1      0.9071128980     0.1105292390     7.0489579940     0.0009566100    -0.0001261800    -0.0002601500
 22     -0.9063419100     0.0274021220     5.0231670320     0.0000000000     0.0008590900     0.0000000000
 CONVCOORD
          44           1
 19      0.0000000000     4.5371038840     0.0000000000
 19      2.6494950310     0.0378847200     0.0000000000
 12     -0.9063419100     3.0807480270     5.0231670320
 12     -0.9063419100     6.0928959760     5.0231670320
 12      1.7431531220     4.5345220140     5.0231670320
 12      1.7431531220     7.6532648900     5.0231670320
 12      1.7431531220     1.6099433940     5.0231670320
 14      0.0482506050     1.5312155330     2.2108774970
 14      3.4380555090     1.5312155330     7.8354568690
 14      3.5443595730     7.6631242830     7.7679142450
 14     -0.0580533300     7.6631242830     2.2784198190
 14      2.5821288620     6.1294375270     2.2605200700
 14      0.9041774080     6.1294375270     7.7858138440
 13      0.7899533750     3.0447688730     7.8094083220
 13      2.6963528680     3.0447688730     2.2369257420
  8      0.0038431260     1.5720402650     3.8439002790
  8      3.4824629060     1.5720402650     6.2024340770
  8      3.5015544060     7.5963684670     6.1497322960
  8     -0.0152481620     7.5963684670     3.8966017690
  8      2.6147470750     6.1547570790     3.8879437930
  8      0.8715591680     6.1547570790     6.1583902720
  8      0.8150290820     3.0648735820     6.0773798600
  8      2.6712771610     3.0648735820     3.9689542050
  8      1.5253219790     1.8699100760     1.6263409590
  8      1.9609843190     1.8699100760     8.4199928040
  8      4.9811605950     9.1720218240     1.6930314800
  8     -1.4948543250     9.1720218240     8.3533024340
  8      2.1048476220     7.1282256950     8.3782698190
  8      1.3814586210     7.1282256950     1.6680642450
  8      4.0198802460     6.7338051120     1.6667354760
  8     -0.5335740030     6.7338051120     8.3795985890
  8      2.3355439490     4.6696849660     1.6146549800
  8      1.1507621080     4.6696849660     8.4316792350
  8     -0.7670399170     2.5447311530     8.4765863250
  8      4.2533462400     2.5447311530     1.5697477400
  8     -0.0154811360     4.6311814760     3.9578843570
  8      3.5017874590     4.6311814760     6.0884497070
  8      2.5861137800     9.1936885920     3.9628789540
  8      0.9001925180     9.1936885920     6.0834548090
  1     -0.0128031810     4.5517927510     2.9957061620
  1      3.4991095830     4.5517927510     7.0506279030
  1      2.5791933450     0.1105292390     2.9973760700
  1      0.9071128980     0.1105292390     7.0489579940
 22     -0.9063419100     0.0274021220     5.0231670320
 RECIP-PRIMVEC
    0.1887152057   -0.0000000000    0.0340503310

    0.0000000000    0.1087503909   -0.0000000000

    0.0000000000    0.0000000000    0.0995387963

 RECIP-CONVVEC
    0.1887152057   -0.0000000000    0.0340503310

    0.0000000000    0.1087503909   -0.0000000000

    0.0000000000    0.0000000000    0.0995387963

 WIGNER-SEITZ-PRIMCELL
           4
 -0.2649495E+01  0.4597685E+01 -0.4708646E+01  -0.3278435E+00 -0.1009766E-15 -0.9447320E+00
 -0.8368112E+00  0.4597685E+01 -0.5337688E+01  -0.3278435E+00 -0.1009766E-15 -0.9447320E+00
 -0.8368112E+00 -0.4597685E+01 -0.5337688E+01  -0.3278435E+00 -0.1009766E-15 -0.9447320E+00
 -0.2649495E+01 -0.4597685E+01 -0.4708646E+01  -0.3278435E+00 -0.1009766E-15 -0.9447320E+00
           4
 -0.2649495E+01  0.4597685E+01 -0.4708646E+01  -0.1000000E+01  0.4829488E-16  0.4554862E-32
 -0.2649495E+01 -0.4597685E+01 -0.4708646E+01  -0.1000000E+01  0.4829488E-16  0.4554862E-32
 -0.2649495E+01 -0.4597685E+01  0.4708646E+01  -0.1000000E+01  0.4829488E-16  0.4554862E-32
 -0.2649495E+01  0.4597685E+01  0.4708646E+01  -0.1000000E+01  0.4829488E-16  0.4554862E-32
           6
  0.2649495E+01 -0.4597685E+01  0.4708646E+01  -0.0000000E+00 -0.1000000E+01  0.1065828E-14
  0.8368112E+00 -0.4597685E+01  0.5337688E+01  -0.0000000E+00 -0.1000000E+01  0.1065828E-14
 -0.2649495E+01 -0.4597685E+01  0.4708646E+01  -0.0000000E+00 -0.1000000E+01  0.1065828E-14
 -0.2649495E+01 -0.4597685E+01 -0.4708646E+01  -0.0000000E+00 -0.1000000E+01  0.1065828E-14
 -0.8368112E+00 -0.4597685E+01 -0.5337688E+01  -0.0000000E+00 -0.1000000E+01  0.1065828E-14
  0.2649495E+01 -0.4597685E+01 -0.4708646E+01  -0.0000000E+00 -0.1000000E+01  0.1065828E-14
           4
  0.2649495E+01 -0.4597685E+01 -0.4708646E+01   0.1775651E+00 -0.2181216E-15 -0.9841091E+00
 -0.8368112E+00 -0.4597685E+01 -0.5337688E+01   0.1775651E+00 -0.2181216E-15 -0.9841091E+00
 -0.8368112E+00  0.4597685E+01 -0.5337688E+01   0.1775651E+00 -0.2181216E-15 -0.9841091E+00
  0.2649495E+01  0.4597685E+01 -0.4708646E+01   0.1775651E+00 -0.2181216E-15 -0.9841091E+00
           4
 -0.2649495E+01  0.4597685E+01  0.4708646E+01  -0.1775651E+00 -0.0000000E+00  0.9841091E+00
 -0.2649495E+01 -0.4597685E+01  0.4708646E+01  -0.1775651E+00 -0.0000000E+00  0.9841091E+00
  0.8368112E+00 -0.4597685E+01  0.5337688E+01  -0.1775651E+00 -0.0000000E+00  0.9841091E+00
  0.8368112E+00  0.4597685E+01  0.5337688E+01  -0.1775651E+00 -0.0000000E+00  0.9841091E+00
           6
  0.2649495E+01  0.4597685E+01 -0.4708646E+01   0.0000000E+00  0.1000000E+01  0.1065828E-14
 -0.8368112E+00  0.4597685E+01 -0.5337688E+01   0.0000000E+00  0.1000000E+01  0.1065828E-14
 -0.2649495E+01  0.4597685E+01 -0.4708646E+01   0.0000000E+00  0.1000000E+01  0.1065828E-14
 -0.2649495E+01  0.4597685E+01  0.4708646E+01   0.0000000E+00  0.1000000E+01  0.1065828E-14
  0.8368112E+00  0.4597685E+01  0.5337688E+01   0.0000000E+00  0.1000000E+01  0.1065828E-14
  0.2649495E+01  0.4597685E+01  0.4708646E+01   0.0000000E+00  0.1000000E+01  0.1065828E-14
           4
  0.2649495E+01  0.4597685E+01  0.4708646E+01   0.1000000E+01 -0.4829488E-16  0.0000000E+00
  0.2649495E+01 -0.4597685E+01  0.4708646E+01   0.1000000E+01 -0.4829488E-16  0.0000000E+00
  0.2649495E+01 -0.4597685E+01 -0.4708646E+01   0.1000000E+01 -0.4829488E-16  0.0000000E+00
  0.2649495E+01  0.4597685E+01 -0.4708646E+01   0.1000000E+01 -0.4829488E-16  0.0000000E+00
           4
  0.8368112E+00 -0.4597685E+01  0.5337688E+01   0.3278435E+00  0.3334111E-16  0.9447320E+00
  0.2649495E+01 -0.4597685E+01  0.4708646E+01   0.3278435E+00  0.3334111E-16  0.9447320E+00
  0.2649495E+01  0.4597685E+01  0.4708646E+01   0.3278435E+00  0.3334111E-16  0.9447320E+00
  0.8368112E+00  0.4597685E+01  0.5337688E+01   0.3278435E+00  0.3334111E-16  0.9447320E+00
 WIGNER-SEITZ-PRIMCELL_END
 WIGNER-SEITZ-CONVCELL
           4
 -0.2649495E+01  0.4597685E+01 -0.4708646E+01  -0.3278435E+00 -0.1009766E-15 -0.9447320E+00
 -0.8368112E+00  0.4597685E+01 -0.5337688E+01  -0.3278435E+00 -0.1009766E-15 -0.9447320E+00
 -0.8368112E+00 -0.4597685E+01 -0.5337688E+01  -0.3278435E+00 -0.1009766E-15 -0.9447320E+00
 -0.2649495E+01 -0.4597685E+01 -0.4708646E+01  -0.3278435E+00 -0.1009766E-15 -0.9447320E+00
           4
 -0.2649495E+01  0.4597685E+01 -0.4708646E+01  -0.1000000E+01  0.4829488E-16  0.4554862E-32
 -0.2649495E+01 -0.4597685E+01 -0.4708646E+01  -0.1000000E+01  0.4829488E-16  0.4554862E-32
 -0.2649495E+01 -0.4597685E+01  0.4708646E+01  -0.1000000E+01  0.4829488E-16  0.4554862E-32
 -0.2649495E+01  0.4597685E+01  0.4708646E+01  -0.1000000E+01  0.4829488E-16  0.4554862E-32
           6
  0.2649495E+01 -0.4597685E+01  0.4708646E+01  -0.0000000E+00 -0.1000000E+01  0.1065828E-14
  0.8368112E+00 -0.4597685E+01  0.5337688E+01  -0.0000000E+00 -0.1000000E+01  0.1065828E-14
 -0.2649495E+01 -0.4597685E+01  0.4708646E+01  -0.0000000E+00 -0.1000000E+01  0.1065828E-14
 -0.2649495E+01 -0.4597685E+01 -0.4708646E+01  -0.0000000E+00 -0.1000000E+01  0.1065828E-14
 -0.8368112E+00 -0.4597685E+01 -0.5337688E+01  -0.0000000E+00 -0.1000000E+01  0.1065828E-14
  0.2649495E+01 -0.4597685E+01 -0.4708646E+01  -0.0000000E+00 -0.1000000E+01  0.1065828E-14
           4
  0.2649495E+01 -0.4597685E+01 -0.4708646E+01   0.1775651E+00 -0.2181216E-15 -0.9841091E+00
 -0.8368112E+00 -0.4597685E+01 -0.5337688E+01   0.1775651E+00 -0.2181216E-15 -0.9841091E+00
 -0.8368112E+00  0.4597685E+01 -0.5337688E+01   0.1775651E+00 -0.2181216E-15 -0.9841091E+00
  0.2649495E+01  0.4597685E+01 -0.4708646E+01   0.1775651E+00 -0.2181216E-15 -0.9841091E+00
           4
 -0.2649495E+01  0.4597685E+01  0.4708646E+01  -0.1775651E+00 -0.0000000E+00  0.9841091E+00
 -0.2649495E+01 -0.4597685E+01  0.4708646E+01  -0.1775651E+00 -0.0000000E+00  0.9841091E+00
  0.8368112E+00 -0.4597685E+01  0.5337688E+01  -0.1775651E+00 -0.0000000E+00  0.9841091E+00
  0.8368112E+00  0.4597685E+01  0.5337688E+01  -0.1775651E+00 -0.0000000E+00  0.9841091E+00
           6
  0.2649495E+01  0.4597685E+01 -0.4708646E+01   0.0000000E+00  0.1000000E+01  0.1065828E-14
 -0.8368112E+00  0.4597685E+01 -0.5337688E+01   0.0000000E+00  0.1000000E+01  0.1065828E-14
 -0.2649495E+01  0.4597685E+01 -0.4708646E+01   0.0000000E+00  0.1000000E+01  0.1065828E-14
 -0.2649495E+01  0.4597685E+01  0.4708646E+01   0.0000000E+00  0.1000000E+01  0.1065828E-14
  0.8368112E+00  0.4597685E+01  0.5337688E+01   0.0000000E+00  0.1000000E+01  0.1065828E-14
  0.2649495E+01  0.4597685E+01  0.4708646E+01   0.0000000E+00  0.1000000E+01  0.1065828E-14
           4
  0.2649495E+01  0.4597685E+01  0.4708646E+01   0.1000000E+01 -0.4829488E-16  0.0000000E+00
  0.2649495E+01 -0.4597685E+01  0.4708646E+01   0.1000000E+01 -0.4829488E-16  0.0000000E+00
  0.2649495E+01 -0.4597685E+01 -0.4708646E+01   0.1000000E+01 -0.4829488E-16  0.0000000E+00
  0.2649495E+01  0.4597685E+01 -0.4708646E+01   0.1000000E+01 -0.4829488E-16  0.0000000E+00
           4
  0.8368112E+00 -0.4597685E+01  0.5337688E+01   0.3278435E+00  0.3334111E-16  0.9447320E+00
  0.2649495E+01 -0.4597685E+01  0.4708646E+01   0.3278435E+00  0.3334111E-16  0.9447320E+00
  0.2649495E+01  0.4597685E+01  0.4708646E+01   0.3278435E+00  0.3334111E-16  0.9447320E+00
  0.8368112E+00  0.4597685E+01  0.5337688E+01   0.3278435E+00  0.3334111E-16  0.9447320E+00
 WIGNER-SEITZ-CONVCELL_END
 BRILLOUIN-ZONE-PRIMCELL
           4
  0.1002657E+00  0.5437520E-01 -0.1571907E-01   0.9447320E+00  0.5532186E-16 -0.3278435E+00
  0.1002657E+00 -0.5437520E-01 -0.1571907E-01   0.9447320E+00  0.5532186E-16 -0.3278435E+00
  0.8844948E-01 -0.5437520E-01 -0.4976940E-01   0.9447320E+00  0.5532186E-16 -0.3278435E+00
  0.8844948E-01  0.5437520E-01 -0.4976940E-01   0.9447320E+00  0.5532186E-16 -0.3278435E+00
           4
 -0.8844948E-01  0.5437520E-01 -0.4976940E-01   0.0000000E+00 -0.5426985E-16 -0.1000000E+01
  0.8844948E-01  0.5437520E-01 -0.4976940E-01   0.0000000E+00 -0.5426985E-16 -0.1000000E+01
  0.8844948E-01 -0.5437520E-01 -0.4976940E-01   0.0000000E+00 -0.5426985E-16 -0.1000000E+01
 -0.8844948E-01 -0.5437520E-01 -0.4976940E-01   0.0000000E+00 -0.5426985E-16 -0.1000000E+01
           6
  0.8844948E-01 -0.5437520E-01  0.4976940E-01   0.0000000E+00 -0.1000000E+01  0.2879941E-15
 -0.8844948E-01 -0.5437520E-01  0.4976940E-01   0.0000000E+00 -0.1000000E+01  0.2879941E-15
 -0.1002657E+00 -0.5437520E-01  0.1571907E-01   0.0000000E+00 -0.1000000E+01  0.2879941E-15
 -0.8844948E-01 -0.5437520E-01 -0.4976940E-01   0.0000000E+00 -0.1000000E+01  0.2879941E-15
  0.8844948E-01 -0.5437520E-01 -0.4976940E-01   0.0000000E+00 -0.1000000E+01  0.2879941E-15
  0.1002657E+00 -0.5437520E-01 -0.1571907E-01   0.0000000E+00 -0.1000000E+01  0.2879941E-15
           4
  0.8844948E-01  0.5437520E-01  0.4976940E-01   0.9841091E+00 -0.3370857E-15  0.1775651E+00
  0.8844948E-01 -0.5437520E-01  0.4976940E-01   0.9841091E+00 -0.3370857E-15  0.1775651E+00
  0.1002657E+00 -0.5437520E-01 -0.1571907E-01   0.9841091E+00 -0.3370857E-15  0.1775651E+00
  0.1002657E+00  0.5437520E-01 -0.1571907E-01   0.9841091E+00 -0.3370857E-15  0.1775651E+00
           4
 -0.8844948E-01  0.5437520E-01 -0.4976940E-01  -0.9841091E+00 -0.1498159E-15 -0.1775651E+00
 -0.8844948E-01 -0.5437520E-01 -0.4976940E-01  -0.9841091E+00 -0.1498159E-15 -0.1775651E+00
 -0.1002657E+00 -0.5437520E-01  0.1571907E-01  -0.9841091E+00 -0.1498159E-15 -0.1775651E+00
 -0.1002657E+00  0.5437520E-01  0.1571907E-01  -0.9841091E+00 -0.1498159E-15 -0.1775651E+00
           6
  0.1002657E+00  0.5437520E-01 -0.1571907E-01  -0.0000000E+00  0.1000000E+01  0.2879941E-15
  0.8844948E-01  0.5437520E-01 -0.4976940E-01  -0.0000000E+00  0.1000000E+01  0.2879941E-15
 -0.8844948E-01  0.5437520E-01 -0.4976940E-01  -0.0000000E+00  0.1000000E+01  0.2879941E-15
 -0.1002657E+00  0.5437520E-01  0.1571907E-01  -0.0000000E+00  0.1000000E+01  0.2879941E-15
 -0.8844948E-01  0.5437520E-01  0.4976940E-01  -0.0000000E+00  0.1000000E+01  0.2879941E-15
  0.8844948E-01  0.5437520E-01  0.4976940E-01  -0.0000000E+00  0.1000000E+01  0.2879941E-15
           4
  0.8844948E-01 -0.5437520E-01  0.4976940E-01  -0.0000000E+00 -0.0000000E+00  0.1000000E+01
  0.8844948E-01  0.5437520E-01  0.4976940E-01  -0.0000000E+00 -0.0000000E+00  0.1000000E+01
 -0.8844948E-01  0.5437520E-01  0.4976940E-01  -0.0000000E+00 -0.0000000E+00  0.1000000E+01
 -0.8844948E-01 -0.5437520E-01  0.4976940E-01  -0.0000000E+00 -0.0000000E+00  0.1000000E+01
           4
 -0.1002657E+00  0.5437520E-01  0.1571907E-01  -0.9447320E+00 -0.1383046E-15  0.3278435E+00
 -0.1002657E+00 -0.5437520E-01  0.1571907E-01  -0.9447320E+00 -0.1383046E-15  0.3278435E+00
 -0.8844948E-01 -0.5437520E-01  0.4976940E-01  -0.9447320E+00 -0.1383046E-15  0.3278435E+00
 -0.8844948E-01  0.5437520E-01  0.4976940E-01  -0.9447320E+00 -0.1383046E-15  0.3278435E+00
 BRILLOUIN-ZONE-PRIMCELL_END
 BRILLOUIN-ZONE-CONVCELL
           4
  0.1002657E+00  0.5437520E-01 -0.1571907E-01   0.9447320E+00  0.5532186E-16 -0.3278435E+00
  0.1002657E+00 -0.5437520E-01 -0.1571907E-01   0.9447320E+00  0.5532186E-16 -0.3278435E+00
  0.8844948E-01 -0.5437520E-01 -0.4976940E-01   0.9447320E+00  0.5532186E-16 -0.3278435E+00
  0.8844948E-01  0.5437520E-01 -0.4976940E-01   0.9447320E+00  0.5532186E-16 -0.3278435E+00
           4
 -0.8844948E-01  0.5437520E-01 -0.4976940E-01   0.0000000E+00 -0.5426985E-16 -0.1000000E+01
  0.8844948E-01  0.5437520E-01 -0.4976940E-01   0.0000000E+00 -0.5426985E-16 -0.1000000E+01
  0.8844948E-01 -0.5437520E-01 -0.4976940E-01   0.0000000E+00 -0.5426985E-16 -0.1000000E+01
 -0.8844948E-01 -0.5437520E-01 -0.4976940E-01   0.0000000E+00 -0.5426985E-16 -0.1000000E+01
           6
  0.8844948E-01 -0.5437520E-01  0.4976940E-01   0.0000000E+00 -0.1000000E+01  0.2879941E-15
 -0.8844948E-01 -0.5437520E-01  0.4976940E-01   0.0000000E+00 -0.1000000E+01  0.2879941E-15
 -0.1002657E+00 -0.5437520E-01  0.1571907E-01   0.0000000E+00 -0.1000000E+01  0.2879941E-15
 -0.8844948E-01 -0.5437520E-01 -0.4976940E-01   0.0000000E+00 -0.1000000E+01  0.2879941E-15
  0.8844948E-01 -0.5437520E-01 -0.4976940E-01   0.0000000E+00 -0.1000000E+01  0.2879941E-15
  0.1002657E+00 -0.5437520E-01 -0.1571907E-01   0.0000000E+00 -0.1000000E+01  0.2879941E-15
           4
  0.8844948E-01  0.5437520E-01  0.4976940E-01   0.9841091E+00 -0.3370857E-15  0.1775651E+00
  0.8844948E-01 -0.5437520E-01  0.4976940E-01   0.9841091E+00 -0.3370857E-15  0.1775651E+00
  0.1002657E+00 -0.5437520E-01 -0.1571907E-01   0.9841091E+00 -0.3370857E-15  0.1775651E+00
  0.1002657E+00  0.5437520E-01 -0.1571907E-01   0.9841091E+00 -0.3370857E-15  0.1775651E+00
           4
 -0.8844948E-01  0.5437520E-01 -0.4976940E-01  -0.9841091E+00 -0.1498159E-15 -0.1775651E+00
 -0.8844948E-01 -0.5437520E-01 -0.4976940E-01  -0.9841091E+00 -0.1498159E-15 -0.1775651E+00
 -0.1002657E+00 -0.5437520E-01  0.1571907E-01  -0.9841091E+00 -0.1498159E-15 -0.1775651E+00
 -0.1002657E+00  0.5437520E-01  0.1571907E-01  -0.9841091E+00 -0.1498159E-15 -0.1775651E+00
           6
  0.1002657E+00  0.5437520E-01 -0.1571907E-01  -0.0000000E+00  0.1000000E+01  0.2879941E-15
  0.8844948E-01  0.5437520E-01 -0.4976940E-01  -0.0000000E+00  0.1000000E+01  0.2879941E-15
 -0.8844948E-01  0.5437520E-01 -0.4976940E-01  -0.0000000E+00  0.1000000E+01  0.2879941E-15
 -0.1002657E+00  0.5437520E-01  0.1571907E-01  -0.0000000E+00  0.1000000E+01  0.2879941E-15
 -0.8844948E-01  0.5437520E-01  0.4976940E-01  -0.0000000E+00  0.1000000E+01  0.2879941E-15
  0.8844948E-01  0.5437520E-01  0.4976940E-01  -0.0000000E+00  0.1000000E+01  0.2879941E-15
           4
  0.8844948E-01 -0.5437520E-01  0.4976940E-01  -0.0000000E+00 -0.0000000E+00  0.1000000E+01
  0.8844948E-01  0.5437520E-01  0.4976940E-01  -0.0000000E+00 -0.0000000E+00  0.1000000E+01
 -0.8844948E-01  0.5437520E-01  0.4976940E-01  -0.0000000E+00 -0.0000000E+00  0.1000000E+01
 -0.8844948E-01 -0.5437520E-01  0.4976940E-01  -0.0000000E+00 -0.0000000E+00  0.1000000E+01
           4
 -0.1002657E+00  0.5437520E-01  0.1571907E-01  -0.9447320E+00 -0.1383046E-15  0.3278435E+00
 -0.1002657E+00 -0.5437520E-01  0.1571907E-01  -0.9447320E+00 -0.1383046E-15  0.3278435E+00
 -0.8844948E-01 -0.5437520E-01  0.4976940E-01  -0.9447320E+00 -0.1383046E-15  0.3278435E+00
 -0.8844948E-01  0.5437520E-01  0.4976940E-01  -0.9447320E+00 -0.1383046E-15  0.3278435E+00
 BRILLOUIN-ZONE-CONVCELL_END
 ATOMS
   19    0.0000000000    4.5371038840    0.0000000000    0.0000000000    0.0006031400    0.0000000000
   19    2.6494950310    0.0378847200    0.0000000000    0.0000000000   -0.0008420600    0.0000000000
   12   -0.9063419100    3.0807480270    5.0231670320    0.0000000000   -0.0007665400    0.0000000000
   12   -0.9063419100    6.0928959760    5.0231670320    0.0000000000    0.0008525800    0.0000000000
   12    1.7431531220    4.5345220140    5.0231670320    0.0000000000   -0.0003516000    0.0000000000
   12    1.7431531220    7.6532648900    5.0231670320    0.0000000000    0.0007064100    0.0000000000
   12    1.7431531220    1.6099433940    5.0231670320    0.0000000000   -0.0009334400    0.0000000000
   14    0.0482506050    1.5312155330    2.2108774970    0.0001831100    0.0002702600   -0.0002209200
   14    3.4380555090    1.5312155330    7.8354568690   -0.0001831100    0.0002702600    0.0002209200
   14    3.5443595730    7.6631242830    7.7679142450    0.0001875300    0.0002224100    0.0001612400
   14   -0.0580533300    7.6631242830    2.2784198190   -0.0001875300    0.0002224100   -0.0001612400
   14    2.5821288620    6.1294375270    2.2605200700   -0.0000183600   -0.0003696900   -0.0002670500
   14    0.9041774080    6.1294375270    7.7858138440    0.0000183600   -0.0003696900    0.0002670500
   13    0.7899533750    3.0447688730    7.8094083220   -0.0000252600    0.0003215600    0.0002824200
   13    2.6963528680    3.0447688730    2.2369257420    0.0000252600    0.0003215600   -0.0002824200
    8    0.0038431260    1.5720402650    3.8439002790    0.0003523500    0.0000387600    0.0000210600
    8    3.4824629060    1.5720402650    6.2024340770   -0.0003523500    0.0000387600   -0.0000210600
    8    3.5015544060    7.5963684670    6.1497322960   -0.0002218200   -0.0004769100   -0.0000421100
    8   -0.0152481620    7.5963684670    3.8966017690    0.0002218200   -0.0004769100    0.0000421100
    8    2.6147470750    6.1547570790    3.8879437930    0.0001775600   -0.0002204000   -0.0000813500
    8    0.8715591680    6.1547570790    6.1583902720   -0.0001775600   -0.0002204000    0.0000813500
    8    0.8150290820    3.0648735820    6.0773798600   -0.0002650400    0.0004748100    0.0003782500
    8    2.6712771610    3.0648735820    3.9689542050    0.0002650400    0.0004748100   -0.0003782500
    8    1.5253219790    1.8699100760    1.6263409590    0.0002834700   -0.0001737200    0.0003663500
    8    1.9609843190    1.8699100760    8.4199928040   -0.0002834700   -0.0001737200   -0.0003663500
    8    4.9811605950    9.1720218240    1.6930314800   -0.0000307300    0.0001362900   -0.0008748700
    8   -1.4948543250    9.1720218240    8.3533024340    0.0000307300    0.0001362900    0.0008748700
    8    2.1048476220    7.1282256950    8.3782698190    0.0000670900    0.0000936800   -0.0003934500
    8    1.3814586210    7.1282256950    1.6680642450   -0.0000670900    0.0000936800    0.0003934500
    8    4.0198802460    6.7338051120    1.6667354760    0.0001440400   -0.0001009200    0.0002660900
    8   -0.5335740030    6.7338051120    8.3795985890   -0.0001440400   -0.0001009200   -0.0002660900
    8    2.3355439490    4.6696849660    1.6146549800    0.0007530000    0.0001185000    0.0000611700
    8    1.1507621080    4.6696849660    8.4316792350   -0.0007530000    0.0001185000   -0.0000611700
    8   -0.7670399170    2.5447311530    8.4765863250   -0.0001284700    0.0000648200   -0.0006264300
    8    4.2533462400    2.5447311530    1.5697477400    0.0001284700    0.0000648200    0.0006264300
    8   -0.0154811360    4.6311814760    3.9578843570   -0.0001979300    0.0002157600    0.0004610700
    8    3.5017874590    4.6311814760    6.0884497070    0.0001979300    0.0002157600   -0.0004610700
    8    2.5861137800    9.1936885920    3.9628789540   -0.0004580800   -0.0000787300    0.0006551000
    8    0.9001925180    9.1936885920    6.0834548090    0.0004580800   -0.0000787300   -0.0006551000
    1   -0.0128031810    4.5517927510    2.9957061620    0.0004549700   -0.0004741100    0.0002406800
    1    3.4991095830    4.5517927510    7.0506279030   -0.0004549700   -0.0004741100   -0.0002406800
    1    2.5791933450    0.1105292390    2.9973760700   -0.0009566100   -0.0001261800    0.0002601500
    1    0.9071128980    0.1105292390    7.0489579940    0.0009566100   -0.0001261800   -0.0002601500
   22   -0.9063419100    0.0274021220    5.0231670320    0.0000000000    0.0008590900    0.0000000000
   19   -1.8126838200    4.5371038840   10.0463340640    0.0000000000    0.0006031400    0.0000000000
   19    0.8368112110    0.0378847200   10.0463340640    0.0000000000   -0.0008420600    0.0000000000
   19    5.2989900630    4.5371038840    0.0000000000    0.0000000000    0.0006031400    0.0000000000
   12    4.3926481530    3.0807480270    5.0231670320    0.0000000000   -0.0007665400    0.0000000000
   12    4.3926481530    6.0928959760    5.0231670320    0.0000000000    0.0008525800    0.0000000000
   22    4.3926481530    0.0274021220    5.0231670320    0.0000000000    0.0008590900    0.0000000000
   19    3.4863062430    4.5371038840   10.0463340640    0.0000000000    0.0006031400    0.0000000000
 FRAMES
1      0.0000000000    0.0000000000    0.0000000000      5.2989900630    0.0000000000    0.0000000000
1      0.0000000000    0.0000000000    0.0000000000      0.0000000000    9.1953692500    0.0000000000
1      0.0000000000    0.0000000000    0.0000000000     -1.8126838200    0.0000000000   10.0463340640
1     -1.8126838200    0.0000000000   10.0463340640      3.4863062430    0.0000000000   10.0463340640
1     -1.8126838200    0.0000000000   10.0463340640     -1.8126838200    9.1953692500   10.0463340640
1      0.0000000000    9.1953692500    0.0000000000      5.2989900630    9.1953692500    0.0000000000
1      0.0000000000    9.1953692500    0.0000000000     -1.8126838200    9.1953692500   10.0463340640
1     -1.8126838200    9.1953692500   10.0463340640      3.4863062430    9.1953692500   10.0463340640
1      5.2989900630    0.0000000000    0.0000000000      5.2989900630    9.1953692500    0.0000000000
1      5.2989900630    0.0000000000    0.0000000000      3.4863062430    0.0000000000   10.0463340640
1      3.4863062430    0.0000000000   10.0463340640      3.4863062430    9.1953692500   10.0463340640
1      5.2989900630    9.1953692500    0.0000000000      3.4863062430    9.1953692500   10.0463340640
