 INFO
nunit      1    1    1
unit   cell
celltype   primcell
shape   parapipedal
 END_INFO
 DIM-GROUP
           3           1
 PRIMVEC
   10.6448869230    0.0000000000    0.0000000000
    0.0000000000    9.2179504760    0.0000000000
   -1.8400006390    0.0000000000   10.1869013080
 CONVVEC
   10.6448869230    0.0000000000    0.0000000000
    0.0000000000    9.2179504760    0.0000000000
   -1.8400006390    0.0000000000   10.1869013080
 PRIMCOORD
          87           1
 19      0.0000000000     4.6494608400     0.0000000000     0.0000000000    -0.0002141100     0.0000000000
 19      5.3224434610     4.5022405030     0.0000000000     0.0000000000    -0.0001734500     0.0000000000
 19      2.7090216040     0.0391951770    -0.1674371820    -0.0001604900     0.0000037400     0.0004281100
 19      7.9358653190     0.0391951770     0.1674371820     0.0001604900     0.0000037400    -0.0004281100
 12     -0.9200003200     6.2129652180     5.0934506540     0.0000000000    -0.0004099900     0.0000000000
 12      4.4024431420     6.1620115400     5.0934506540     0.0000000000    -0.0003075200     0.0000000000
 12      1.7634072620     4.5969692640     5.1005267030     0.0000915100    -0.0001895200     0.0001074500
 12      7.0414790210     4.5969692640     5.0863746050    -0.0000915100    -0.0001895200    -0.0001074500
 12      1.6641184140     7.7553653340     5.1034033060     0.0000066100    -0.0000282100    -0.0000142700
 12      7.1407678700     7.7553653340     5.0834980010    -0.0000066100    -0.0000282100     0.0000142700
 12      1.7473233050     1.5061640630     5.1328855980    -0.0000690300    -0.0001554200     0.0002469900
 12      7.0575629790     1.5061640630     5.0540157100     0.0000690300    -0.0001554200    -0.0002469900
 12      4.4024431420     3.0634018460     5.0934506540     0.0000000000     0.0000980800     0.0000000000
 12      4.4024431420     0.0276410160     5.0934506540     0.0000000000    -0.0000537800     0.0000000000
 14      0.0388201020     1.5447539080     2.2388275130    -0.0004239500     0.0000705000    -0.0000123600
 14      5.3475689690     1.5383439430     2.2955417730     0.0000147500    -0.0001627500     0.0001138300
 14      3.4573176340     1.5383439430     7.8913595350    -0.0000147500    -0.0001627500    -0.0001138300
 14      8.7660659900     1.5447539080     7.9480737950     0.0004239500     0.0000705000     0.0000123600
 14      3.5486071160     7.7025584690     7.8213655950     0.0000646100    -0.0001091500     0.0002643300
 14      8.8674652900     7.6829797180     7.8279576490     0.0000624100     0.0002355200     0.0000718400
 14     -0.0625789210     7.6829797180     2.3589436590    -0.0000624100     0.0002355200    -0.0000718400
 14      5.2562791680     7.7025584690     2.3655357120    -0.0000646100    -0.0001091500    -0.0002643300
 14      2.5726903250     6.1705881540     2.3377622240    -0.0002109600     0.0000581700     0.0000529600
 14      7.9119843600     6.1727939030     2.3260763450     0.0002062900    -0.0000761700     0.0001902300
 14      0.8929019780     6.1727939030     7.8608246580    -0.0002062900    -0.0000761700    -0.0001902300
 14      6.2321960140     6.1705881540     7.8491387780     0.0002109600     0.0000581700    -0.0000529600
 13      0.7733938010     3.0565186520     7.9427672760    -0.0002018800    -0.0002983700     0.0002561000
 13      6.1246156940     3.0627680520     7.8406664030     0.0000058500    -0.0002953100    -0.0000720600
 13      2.6802705900     3.0627680520     2.3462349050    -0.0000058500    -0.0002953100     0.0000720600
 13      8.0314923230     3.0565186520     2.2441340320     0.0002018800    -0.0002983700    -0.0002561000
  8     -0.0416720090     1.7021876620     3.8951494970    -0.0005371900     0.0002846300    -0.0003263700
  8      5.2972718740     1.5220997230     3.9312438280    -0.0004705000     0.0001239000     0.0002217900
  8      3.5076140910     1.5220997230     6.2556574800     0.0004705000     0.0001239000    -0.0002217900
  8      8.8465584520     1.7021876620     6.2917518110     0.0005371900     0.0002846300     0.0003263700
  8      3.5237786270     7.6891176550     6.2018273890    -0.0000245700    -0.0001231600     0.0000922600
  8      8.8163284810     7.5749859990     6.2402370140     0.0001689000     0.0001452100     0.0002480700
  8     -0.0114423570     7.5749859990     3.9466642940    -0.0001689000     0.0001452100    -0.0002480700
  8      5.2811079760     7.6891176550     3.9850739200     0.0000245700    -0.0001231600    -0.0000922600
  8      2.5930168780     6.1784426330     3.9689515320    -0.0000092100    -0.0000197500     0.0002641400
  8      7.9435104730     6.1507758660     3.9547451250     0.0000467800     0.0000898200     0.0002753700
  8      0.8613740020     6.1507758660     6.2321661960    -0.0000467800     0.0000898200    -0.0002753700
  8      6.2118675970     6.1784426330     6.2179597900     0.0000092100    -0.0000197500    -0.0002641400
  8      0.6864929870     3.0664302660     6.1603315070    -0.0000272000     0.0000407200    -0.0000197200
  8      6.1848881000     3.0640599590     6.0987638720     0.0003236400     0.0001521900    -0.0003355500
  8      2.6200086580     3.0640599590     4.0881374360    -0.0003236400     0.0001521900     0.0003355500
  8      8.1184040800     3.0664302660     4.0265698010     0.0000272000     0.0000407200     0.0000197200
  8      1.5224961100     1.8895582060     1.6999548110    -0.0004848500     0.0002469900     0.0001757200
  8      6.7763575790     1.9949806380     1.6744724550    -0.0002678400     0.0001001800     0.0001250300
  8      2.0285289960     1.9949806380     8.5124290060     0.0002678400     0.0001001800    -0.0001250300
  8      7.2823898270     1.8895582060     8.4869466500     0.0004848500     0.0002469900    -0.0001757200
  8     -0.2953457120     9.2085748710     1.7867673030     0.0000421200     0.0003286900     0.0004609400
  8      5.0305174890     9.2060461420     1.7358090640     0.0000662200    -0.0000690200     0.0001182600
  8      3.7743691410     9.2060461420     8.4510920910    -0.0000662200    -0.0000690200    -0.0001182600
  8      9.1002426360     9.2085748710     8.4001338520    -0.0000421200     0.0003286900    -0.0004609400
  8      2.1485470420     7.0906230830     8.4500965580    -0.0001036400     0.0001917500    -0.0002351800
  8      7.4368139860     7.1408259910     8.4811925510     0.0002127000     0.0000049400     0.0001187800
  8      1.3680720830     7.1408259910     1.7057090620    -0.0002127000     0.0000049400    -0.0001187800
  8      6.6563391860     7.0906230830     1.7368050560     0.0001036400     0.0001917500     0.0002351800
  8      4.0150965250     6.7792353990     1.7649147540    -0.0000923700    -0.0000396300    -0.0002540500
  8      9.3323083970     6.7969423870     1.7148777190     0.0002947500    -0.0000843000     0.0000148300
  8     -0.5274205090     6.7969423870     8.4720134120    -0.0002947500    -0.0000843000    -0.0000148300
  8      4.7897919160     6.7792353990     8.4219763770     0.0000923700    -0.0000396300     0.0002540500
  8      2.3339685750     4.6904052610     1.7171010210     0.0001340200     0.0001012400    -0.0002798100
  8      7.7243868890     4.6960579090     1.6843937010    -0.0002365100     0.0000030700     0.0000673300
  8      1.0804997040     4.6960579090     8.5025076070     0.0002365100     0.0000030700    -0.0000673300
  8      6.4709174000     4.6904052610     8.4698002870    -0.0001340200     0.0001012400     0.0002798100
  8     -0.7784380790     2.5458725180     8.5984159010    -0.0000774700    -0.0003074400     0.0001470700
  8      4.5776505170     2.5483110470     8.4990141460    -0.0000216600    -0.0001752400     0.0002283400
  8      4.2272358220     2.5483110470     1.6878868570     0.0000216600    -0.0001752400    -0.0002283400
  8      9.5833245780     2.5458725180     1.5884851020     0.0000774700    -0.0003074400    -0.0001470700
  8     -0.0809950280     4.5538293430     4.0979882970     0.0000078500     0.0002818700    -0.0000842500
  8      5.2881280210     4.6400393570     4.0280065600     0.0001658100     0.0002371300    -0.0002631600
  8      3.5167579960     4.6400393570     6.1588944530    -0.0001658100     0.0002371300     0.0002631600
  8      8.8858816420     4.5538293430     6.0889127150    -0.0000078500     0.0002818700     0.0000842500
  8      2.6439308110     0.0044253190     4.0409733640    -0.0002015400     0.0003573400     0.0002330100
  8      7.8501267540     0.0242889420     3.9408383910     0.0001870000    -0.0002856000    -0.0002621500
  8      0.9547595830     0.0242889420     6.2460626220    -0.0001870000    -0.0002856000     0.0002621500
  8      6.1609555260     0.0044253190     6.1459276490     0.0002015400     0.0003573400    -0.0002330100
  1     -0.0657615470     4.4722981140     3.1321448230     0.0001271500    -0.0000177300     0.0000274300
  1      5.2645024470     4.5870563210     3.0637986510    -0.0000731100     0.0002502400    -0.0001226800
  1      3.5403838370     4.5870563210     7.1231026570     0.0000731100     0.0002502400     0.0001226800
  1      8.8706477030     4.4722981140     7.0547564850    -0.0001271500    -0.0000177300    -0.0000274300
  1      2.6375206650     0.1306685130     3.0825162820    -0.0001694700    -0.0000066900    -0.0002200300
  1      8.8191731140     9.1939769780     3.9968838520     0.0000457300     0.0000906200     0.0000254300
  1     -0.0142761020     9.1939769780     6.1900177620    -0.0000457300     0.0000906200    -0.0000254300
  1      6.1673656190     0.1306685130     7.1043850260     0.0001694700    -0.0000066900     0.0002200300
 22     -0.9200003200     2.9055570300     5.0934506540     0.0000000000    -0.0008492600     0.0000000000
 CONVCOORD
          87           1
 19      0.0000000000     4.6494608400     0.0000000000
 19      5.3224434610     4.5022405030     0.0000000000
 19      2.7090216040     0.0391951770    -0.1674371820
 19      7.9358653190     0.0391951770     0.1674371820
 12     -0.9200003200     6.2129652180     5.0934506540
 12      4.4024431420     6.1620115400     5.0934506540
 12      1.7634072620     4.5969692640     5.1005267030
 12      7.0414790210     4.5969692640     5.0863746050
 12      1.6641184140     7.7553653340     5.1034033060
 12      7.1407678700     7.7553653340     5.0834980010
 12      1.7473233050     1.5061640630     5.1328855980
 12      7.0575629790     1.5061640630     5.0540157100
 12      4.4024431420     3.0634018460     5.0934506540
 12      4.4024431420     0.0276410160     5.0934506540
 14      0.0388201020     1.5447539080     2.2388275130
 14      5.3475689690     1.5383439430     2.2955417730
 14      3.4573176340     1.5383439430     7.8913595350
 14      8.7660659900     1.5447539080     7.9480737950
 14      3.5486071160     7.7025584690     7.8213655950
 14      8.8674652900     7.6829797180     7.8279576490
 14     -0.0625789210     7.6829797180     2.3589436590
 14      5.2562791680     7.7025584690     2.3655357120
 14      2.5726903250     6.1705881540     2.3377622240
 14      7.9119843600     6.1727939030     2.3260763450
 14      0.8929019780     6.1727939030     7.8608246580
 14      6.2321960140     6.1705881540     7.8491387780
 13      0.7733938010     3.0565186520     7.9427672760
 13      6.1246156940     3.0627680520     7.8406664030
 13      2.6802705900     3.0627680520     2.3462349050
 13      8.0314923230     3.0565186520     2.2441340320
  8     -0.0416720090     1.7021876620     3.8951494970
  8      5.2972718740     1.5220997230     3.9312438280
  8      3.5076140910     1.5220997230     6.2556574800
  8      8.8465584520     1.7021876620     6.2917518110
  8      3.5237786270     7.6891176550     6.2018273890
  8      8.8163284810     7.5749859990     6.2402370140
  8     -0.0114423570     7.5749859990     3.9466642940
  8      5.2811079760     7.6891176550     3.9850739200
  8      2.5930168780     6.1784426330     3.9689515320
  8      7.9435104730     6.1507758660     3.9547451250
  8      0.8613740020     6.1507758660     6.2321661960
  8      6.2118675970     6.1784426330     6.2179597900
  8      0.6864929870     3.0664302660     6.1603315070
  8      6.1848881000     3.0640599590     6.0987638720
  8      2.6200086580     3.0640599590     4.0881374360
  8      8.1184040800     3.0664302660     4.0265698010
  8      1.5224961100     1.8895582060     1.6999548110
  8      6.7763575790     1.9949806380     1.6744724550
  8      2.0285289960     1.9949806380     8.5124290060
  8      7.2823898270     1.8895582060     8.4869466500
  8     -0.2953457120     9.2085748710     1.7867673030
  8      5.0305174890     9.2060461420     1.7358090640
  8      3.7743691410     9.2060461420     8.4510920910
  8      9.1002426360     9.2085748710     8.4001338520
  8      2.1485470420     7.0906230830     8.4500965580
  8      7.4368139860     7.1408259910     8.4811925510
  8      1.3680720830     7.1408259910     1.7057090620
  8      6.6563391860     7.0906230830     1.7368050560
  8      4.0150965250     6.7792353990     1.7649147540
  8      9.3323083970     6.7969423870     1.7148777190
  8     -0.5274205090     6.7969423870     8.4720134120
  8      4.7897919160     6.7792353990     8.4219763770
  8      2.3339685750     4.6904052610     1.7171010210
  8      7.7243868890     4.6960579090     1.6843937010
  8      1.0804997040     4.6960579090     8.5025076070
  8      6.4709174000     4.6904052610     8.4698002870
  8     -0.7784380790     2.5458725180     8.5984159010
  8      4.5776505170     2.5483110470     8.4990141460
  8      4.2272358220     2.5483110470     1.6878868570
  8      9.5833245780     2.5458725180     1.5884851020
  8     -0.0809950280     4.5538293430     4.0979882970
  8      5.2881280210     4.6400393570     4.0280065600
  8      3.5167579960     4.6400393570     6.1588944530
  8      8.8858816420     4.5538293430     6.0889127150
  8      2.6439308110     0.0044253190     4.0409733640
  8      7.8501267540     0.0242889420     3.9408383910
  8      0.9547595830     0.0242889420     6.2460626220
  8      6.1609555260     0.0044253190     6.1459276490
  1     -0.0657615470     4.4722981140     3.1321448230
  1      5.2645024470     4.5870563210     3.0637986510
  1      3.5403838370     4.5870563210     7.1231026570
  1      8.8706477030     4.4722981140     7.0547564850
  1      2.6375206650     0.1306685130     3.0825162820
  1      8.8191731140     9.1939769780     3.9968838520
  1     -0.0142761020     9.1939769780     6.1900177620
  1      6.1673656190     0.1306685130     7.1043850260
 22     -0.9200003200     2.9055570300     5.0934506540
 RECIP-PRIMVEC
    0.0939418152   -0.0000000000    0.0169681628

    0.0000000000    0.1084839849   -0.0000000000

    0.0000000000    0.0000000000    0.0981652781

 RECIP-CONVVEC
    0.0939418152   -0.0000000000    0.0169681628

    0.0000000000    0.1084839849   -0.0000000000

    0.0000000000    0.0000000000    0.0981652781

 WIGNER-SEITZ-PRIMCELL
           6
 -0.5322443E+01 -0.4608975E+01 -0.4298263E+01   0.0000000E+00 -0.1000000E+01 -0.0000000E+00
 -0.3482443E+01 -0.4608975E+01 -0.5888638E+01   0.0000000E+00 -0.1000000E+01 -0.0000000E+00
  0.5322443E+01 -0.4608975E+01 -0.4298263E+01   0.0000000E+00 -0.1000000E+01 -0.0000000E+00
  0.5322443E+01 -0.4608975E+01  0.4298263E+01   0.0000000E+00 -0.1000000E+01 -0.0000000E+00
  0.3482443E+01 -0.4608975E+01  0.5888638E+01   0.0000000E+00 -0.1000000E+01 -0.0000000E+00
 -0.5322443E+01 -0.4608975E+01  0.4298263E+01   0.0000000E+00 -0.1000000E+01 -0.0000000E+00
           4
  0.3482443E+01 -0.4608975E+01  0.5888638E+01   0.6539222E+00 -0.8364788E-16  0.7565618E+00
  0.5322443E+01 -0.4608975E+01  0.4298263E+01   0.6539222E+00 -0.8364788E-16  0.7565618E+00
  0.5322443E+01  0.4608975E+01  0.4298263E+01   0.6539222E+00 -0.8364788E-16  0.7565618E+00
  0.3482443E+01  0.4608975E+01  0.5888638E+01   0.6539222E+00 -0.8364788E-16  0.7565618E+00
           4
  0.3482443E+01  0.4608975E+01  0.5888638E+01  -0.1777479E+00 -0.0000000E+00  0.9840761E+00
 -0.5322443E+01  0.4608975E+01  0.4298263E+01  -0.1777479E+00 -0.0000000E+00  0.9840761E+00
 -0.5322443E+01 -0.4608975E+01  0.4298263E+01  -0.1777479E+00 -0.0000000E+00  0.9840761E+00
  0.3482443E+01 -0.4608975E+01  0.5888638E+01  -0.1777479E+00 -0.0000000E+00  0.9840761E+00
           4
  0.5322443E+01 -0.4608975E+01  0.4298263E+01   0.1000000E+01  0.9635313E-16 -0.1033183E-15
  0.5322443E+01 -0.4608975E+01 -0.4298263E+01   0.1000000E+01  0.9635313E-16 -0.1033183E-15
  0.5322443E+01  0.4608975E+01 -0.4298263E+01   0.1000000E+01  0.9635313E-16 -0.1033183E-15
  0.5322443E+01  0.4608975E+01  0.4298263E+01   0.1000000E+01  0.9635313E-16 -0.1033183E-15
           4
 -0.5322443E+01  0.4608975E+01  0.4298263E+01  -0.1000000E+01  0.9635313E-16 -0.1033183E-15
 -0.5322443E+01  0.4608975E+01 -0.4298263E+01  -0.1000000E+01  0.9635313E-16 -0.1033183E-15
 -0.5322443E+01 -0.4608975E+01 -0.4298263E+01  -0.1000000E+01  0.9635313E-16 -0.1033183E-15
 -0.5322443E+01 -0.4608975E+01  0.4298263E+01  -0.1000000E+01  0.9635313E-16 -0.1033183E-15
           4
  0.5322443E+01  0.4608975E+01 -0.4298263E+01   0.1777479E+00 -0.1723022E-15 -0.9840761E+00
  0.5322443E+01 -0.4608975E+01 -0.4298263E+01   0.1777479E+00 -0.1723022E-15 -0.9840761E+00
 -0.3482443E+01 -0.4608975E+01 -0.5888638E+01   0.1777479E+00 -0.1723022E-15 -0.9840761E+00
 -0.3482443E+01  0.4608975E+01 -0.5888638E+01   0.1777479E+00 -0.1723022E-15 -0.9840761E+00
           4
 -0.5322443E+01  0.4608975E+01 -0.4298263E+01  -0.6539222E+00 -0.6741938E-16 -0.7565618E+00
 -0.3482443E+01  0.4608975E+01 -0.5888638E+01  -0.6539222E+00 -0.6741938E-16 -0.7565618E+00
 -0.3482443E+01 -0.4608975E+01 -0.5888638E+01  -0.6539222E+00 -0.6741938E-16 -0.7565618E+00
 -0.5322443E+01 -0.4608975E+01 -0.4298263E+01  -0.6539222E+00 -0.6741938E-16 -0.7565618E+00
           6
  0.3482443E+01  0.4608975E+01  0.5888638E+01   0.0000000E+00  0.1000000E+01  0.0000000E+00
  0.5322443E+01  0.4608975E+01  0.4298263E+01   0.0000000E+00  0.1000000E+01  0.0000000E+00
  0.5322443E+01  0.4608975E+01 -0.4298263E+01   0.0000000E+00  0.1000000E+01  0.0000000E+00
 -0.3482443E+01  0.4608975E+01 -0.5888638E+01   0.0000000E+00  0.1000000E+01  0.0000000E+00
 -0.5322443E+01  0.4608975E+01 -0.4298263E+01   0.0000000E+00  0.1000000E+01  0.0000000E+00
 -0.5322443E+01  0.4608975E+01  0.4298263E+01   0.0000000E+00  0.1000000E+01  0.0000000E+00
 WIGNER-SEITZ-PRIMCELL_END
 WIGNER-SEITZ-CONVCELL
           6
 -0.5322443E+01 -0.4608975E+01 -0.4298263E+01   0.0000000E+00 -0.1000000E+01 -0.0000000E+00
 -0.3482443E+01 -0.4608975E+01 -0.5888638E+01   0.0000000E+00 -0.1000000E+01 -0.0000000E+00
  0.5322443E+01 -0.4608975E+01 -0.4298263E+01   0.0000000E+00 -0.1000000E+01 -0.0000000E+00
  0.5322443E+01 -0.4608975E+01  0.4298263E+01   0.0000000E+00 -0.1000000E+01 -0.0000000E+00
  0.3482443E+01 -0.4608975E+01  0.5888638E+01   0.0000000E+00 -0.1000000E+01 -0.0000000E+00
 -0.5322443E+01 -0.4608975E+01  0.4298263E+01   0.0000000E+00 -0.1000000E+01 -0.0000000E+00
           4
  0.3482443E+01 -0.4608975E+01  0.5888638E+01   0.6539222E+00 -0.8364788E-16  0.7565618E+00
  0.5322443E+01 -0.4608975E+01  0.4298263E+01   0.6539222E+00 -0.8364788E-16  0.7565618E+00
  0.5322443E+01  0.4608975E+01  0.4298263E+01   0.6539222E+00 -0.8364788E-16  0.7565618E+00
  0.3482443E+01  0.4608975E+01  0.5888638E+01   0.6539222E+00 -0.8364788E-16  0.7565618E+00
           4
  0.3482443E+01  0.4608975E+01  0.5888638E+01  -0.1777479E+00 -0.0000000E+00  0.9840761E+00
 -0.5322443E+01  0.4608975E+01  0.4298263E+01  -0.1777479E+00 -0.0000000E+00  0.9840761E+00
 -0.5322443E+01 -0.4608975E+01  0.4298263E+01  -0.1777479E+00 -0.0000000E+00  0.9840761E+00
  0.3482443E+01 -0.4608975E+01  0.5888638E+01  -0.1777479E+00 -0.0000000E+00  0.9840761E+00
           4
  0.5322443E+01 -0.4608975E+01  0.4298263E+01   0.1000000E+01  0.9635313E-16 -0.1033183E-15
  0.5322443E+01 -0.4608975E+01 -0.4298263E+01   0.1000000E+01  0.9635313E-16 -0.1033183E-15
  0.5322443E+01  0.4608975E+01 -0.4298263E+01   0.1000000E+01  0.9635313E-16 -0.1033183E-15
  0.5322443E+01  0.4608975E+01  0.4298263E+01   0.1000000E+01  0.9635313E-16 -0.1033183E-15
           4
 -0.5322443E+01  0.4608975E+01  0.4298263E+01  -0.1000000E+01  0.9635313E-16 -0.1033183E-15
 -0.5322443E+01  0.4608975E+01 -0.4298263E+01  -0.1000000E+01  0.9635313E-16 -0.1033183E-15
 -0.5322443E+01 -0.4608975E+01 -0.4298263E+01  -0.1000000E+01  0.9635313E-16 -0.1033183E-15
 -0.5322443E+01 -0.4608975E+01  0.4298263E+01  -0.1000000E+01  0.9635313E-16 -0.1033183E-15
           4
  0.5322443E+01  0.4608975E+01 -0.4298263E+01   0.1777479E+00 -0.1723022E-15 -0.9840761E+00
  0.5322443E+01 -0.4608975E+01 -0.4298263E+01   0.1777479E+00 -0.1723022E-15 -0.9840761E+00
 -0.3482443E+01 -0.4608975E+01 -0.5888638E+01   0.1777479E+00 -0.1723022E-15 -0.9840761E+00
 -0.3482443E+01  0.4608975E+01 -0.5888638E+01   0.1777479E+00 -0.1723022E-15 -0.9840761E+00
           4
 -0.5322443E+01  0.4608975E+01 -0.4298263E+01  -0.6539222E+00 -0.6741938E-16 -0.7565618E+00
 -0.3482443E+01  0.4608975E+01 -0.5888638E+01  -0.6539222E+00 -0.6741938E-16 -0.7565618E+00
 -0.3482443E+01 -0.4608975E+01 -0.5888638E+01  -0.6539222E+00 -0.6741938E-16 -0.7565618E+00
 -0.5322443E+01 -0.4608975E+01 -0.4298263E+01  -0.6539222E+00 -0.6741938E-16 -0.7565618E+00
           6
  0.3482443E+01  0.4608975E+01  0.5888638E+01   0.0000000E+00  0.1000000E+01  0.0000000E+00
  0.5322443E+01  0.4608975E+01  0.4298263E+01   0.0000000E+00  0.1000000E+01  0.0000000E+00
  0.5322443E+01  0.4608975E+01 -0.4298263E+01   0.0000000E+00  0.1000000E+01  0.0000000E+00
 -0.3482443E+01  0.4608975E+01 -0.5888638E+01   0.0000000E+00  0.1000000E+01  0.0000000E+00
 -0.5322443E+01  0.4608975E+01 -0.4298263E+01   0.0000000E+00  0.1000000E+01  0.0000000E+00
 -0.5322443E+01  0.4608975E+01  0.4298263E+01   0.0000000E+00  0.1000000E+01  0.0000000E+00
 WIGNER-SEITZ-CONVCELL_END
 BRILLOUIN-ZONE-PRIMCELL
           4
 -0.5430399E-01  0.5424199E-01  0.3211448E-01  -0.9840761E+00 -0.4912002E-16 -0.1777479E+00
 -0.3963783E-01  0.5424199E-01 -0.4908264E-01  -0.9840761E+00 -0.4912002E-16 -0.1777479E+00
 -0.3963783E-01 -0.5424199E-01 -0.4908264E-01  -0.9840761E+00 -0.4912002E-16 -0.1777479E+00
 -0.5430399E-01 -0.5424199E-01  0.3211448E-01  -0.9840761E+00 -0.4912002E-16 -0.1777479E+00
           4
 -0.5430399E-01  0.5424199E-01  0.3211448E-01  -0.7565618E+00  0.4456093E-16  0.6539222E+00
 -0.5430399E-01 -0.5424199E-01  0.3211448E-01  -0.7565618E+00  0.4456093E-16  0.6539222E+00
 -0.3963783E-01 -0.5424199E-01  0.4908264E-01  -0.7565618E+00  0.4456093E-16  0.6539222E+00
 -0.3963783E-01  0.5424199E-01  0.4908264E-01  -0.7565618E+00  0.4456093E-16  0.6539222E+00
           6
  0.3963783E-01 -0.5424199E-01  0.4908264E-01  -0.0000000E+00 -0.1000000E+01  0.0000000E+00
 -0.3963783E-01 -0.5424199E-01  0.4908264E-01  -0.0000000E+00 -0.1000000E+01  0.0000000E+00
 -0.5430399E-01 -0.5424199E-01  0.3211448E-01  -0.0000000E+00 -0.1000000E+01  0.0000000E+00
 -0.3963783E-01 -0.5424199E-01 -0.4908264E-01  -0.0000000E+00 -0.1000000E+01  0.0000000E+00
  0.3963783E-01 -0.5424199E-01 -0.4908264E-01  -0.0000000E+00 -0.1000000E+01  0.0000000E+00
  0.5430399E-01 -0.5424199E-01 -0.3211448E-01  -0.0000000E+00 -0.1000000E+01  0.0000000E+00
           4
 -0.3963783E-01  0.5424199E-01 -0.4908264E-01   0.1008544E-15  0.0000000E+00 -0.1000000E+01
  0.3963783E-01  0.5424199E-01 -0.4908264E-01   0.1008544E-15  0.0000000E+00 -0.1000000E+01
  0.3963783E-01 -0.5424199E-01 -0.4908264E-01   0.1008544E-15  0.0000000E+00 -0.1000000E+01
 -0.3963783E-01 -0.5424199E-01 -0.4908264E-01   0.1008544E-15  0.0000000E+00 -0.1000000E+01
           4
 -0.3963783E-01 -0.5424199E-01  0.4908264E-01  -0.0000000E+00 -0.0000000E+00  0.1000000E+01
  0.3963783E-01 -0.5424199E-01  0.4908264E-01  -0.0000000E+00 -0.0000000E+00  0.1000000E+01
  0.3963783E-01  0.5424199E-01  0.4908264E-01  -0.0000000E+00 -0.0000000E+00  0.1000000E+01
 -0.3963783E-01  0.5424199E-01  0.4908264E-01  -0.0000000E+00 -0.0000000E+00  0.1000000E+01
           6
  0.5430399E-01  0.5424199E-01 -0.3211448E-01  -0.0000000E+00  0.1000000E+01 -0.0000000E+00
  0.3963783E-01  0.5424199E-01 -0.4908264E-01  -0.0000000E+00  0.1000000E+01 -0.0000000E+00
 -0.3963783E-01  0.5424199E-01 -0.4908264E-01  -0.0000000E+00  0.1000000E+01 -0.0000000E+00
 -0.5430399E-01  0.5424199E-01  0.3211448E-01  -0.0000000E+00  0.1000000E+01 -0.0000000E+00
 -0.3963783E-01  0.5424199E-01  0.4908264E-01  -0.0000000E+00  0.1000000E+01 -0.0000000E+00
  0.3963783E-01  0.5424199E-01  0.4908264E-01  -0.0000000E+00  0.1000000E+01 -0.0000000E+00
           4
  0.5430399E-01 -0.5424199E-01 -0.3211448E-01   0.7565618E+00 -0.2104776E-15 -0.6539222E+00
  0.3963783E-01 -0.5424199E-01 -0.4908264E-01   0.7565618E+00 -0.2104776E-15 -0.6539222E+00
  0.3963783E-01  0.5424199E-01 -0.4908264E-01   0.7565618E+00 -0.2104776E-15 -0.6539222E+00
  0.5430399E-01  0.5424199E-01 -0.3211448E-01   0.7565618E+00 -0.2104776E-15 -0.6539222E+00
           4
  0.3963783E-01 -0.5424199E-01  0.4908264E-01   0.9840761E+00  0.1107236E-15  0.1777479E+00
  0.5430399E-01 -0.5424199E-01 -0.3211448E-01   0.9840761E+00  0.1107236E-15  0.1777479E+00
  0.5430399E-01  0.5424199E-01 -0.3211448E-01   0.9840761E+00  0.1107236E-15  0.1777479E+00
  0.3963783E-01  0.5424199E-01  0.4908264E-01   0.9840761E+00  0.1107236E-15  0.1777479E+00
 BRILLOUIN-ZONE-PRIMCELL_END
 BRILLOUIN-ZONE-CONVCELL
           4
 -0.5430399E-01  0.5424199E-01  0.3211448E-01  -0.9840761E+00 -0.4912002E-16 -0.1777479E+00
 -0.3963783E-01  0.5424199E-01 -0.4908264E-01  -0.9840761E+00 -0.4912002E-16 -0.1777479E+00
 -0.3963783E-01 -0.5424199E-01 -0.4908264E-01  -0.9840761E+00 -0.4912002E-16 -0.1777479E+00
 -0.5430399E-01 -0.5424199E-01  0.3211448E-01  -0.9840761E+00 -0.4912002E-16 -0.1777479E+00
           4
 -0.5430399E-01  0.5424199E-01  0.3211448E-01  -0.7565618E+00  0.4456093E-16  0.6539222E+00
 -0.5430399E-01 -0.5424199E-01  0.3211448E-01  -0.7565618E+00  0.4456093E-16  0.6539222E+00
 -0.3963783E-01 -0.5424199E-01  0.4908264E-01  -0.7565618E+00  0.4456093E-16  0.6539222E+00
 -0.3963783E-01  0.5424199E-01  0.4908264E-01  -0.7565618E+00  0.4456093E-16  0.6539222E+00
           6
  0.3963783E-01 -0.5424199E-01  0.4908264E-01  -0.0000000E+00 -0.1000000E+01  0.0000000E+00
 -0.3963783E-01 -0.5424199E-01  0.4908264E-01  -0.0000000E+00 -0.1000000E+01  0.0000000E+00
 -0.5430399E-01 -0.5424199E-01  0.3211448E-01  -0.0000000E+00 -0.1000000E+01  0.0000000E+00
 -0.3963783E-01 -0.5424199E-01 -0.4908264E-01  -0.0000000E+00 -0.1000000E+01  0.0000000E+00
  0.3963783E-01 -0.5424199E-01 -0.4908264E-01  -0.0000000E+00 -0.1000000E+01  0.0000000E+00
  0.5430399E-01 -0.5424199E-01 -0.3211448E-01  -0.0000000E+00 -0.1000000E+01  0.0000000E+00
           4
 -0.3963783E-01  0.5424199E-01 -0.4908264E-01   0.1008544E-15  0.0000000E+00 -0.1000000E+01
  0.3963783E-01  0.5424199E-01 -0.4908264E-01   0.1008544E-15  0.0000000E+00 -0.1000000E+01
  0.3963783E-01 -0.5424199E-01 -0.4908264E-01   0.1008544E-15  0.0000000E+00 -0.1000000E+01
 -0.3963783E-01 -0.5424199E-01 -0.4908264E-01   0.1008544E-15  0.0000000E+00 -0.1000000E+01
           4
 -0.3963783E-01 -0.5424199E-01  0.4908264E-01  -0.0000000E+00 -0.0000000E+00  0.1000000E+01
  0.3963783E-01 -0.5424199E-01  0.4908264E-01  -0.0000000E+00 -0.0000000E+00  0.1000000E+01
  0.3963783E-01  0.5424199E-01  0.4908264E-01  -0.0000000E+00 -0.0000000E+00  0.1000000E+01
 -0.3963783E-01  0.5424199E-01  0.4908264E-01  -0.0000000E+00 -0.0000000E+00  0.1000000E+01
           6
  0.5430399E-01  0.5424199E-01 -0.3211448E-01  -0.0000000E+00  0.1000000E+01 -0.0000000E+00
  0.3963783E-01  0.5424199E-01 -0.4908264E-01  -0.0000000E+00  0.1000000E+01 -0.0000000E+00
 -0.3963783E-01  0.5424199E-01 -0.4908264E-01  -0.0000000E+00  0.1000000E+01 -0.0000000E+00
 -0.5430399E-01  0.5424199E-01  0.3211448E-01  -0.0000000E+00  0.1000000E+01 -0.0000000E+00
 -0.3963783E-01  0.5424199E-01  0.4908264E-01  -0.0000000E+00  0.1000000E+01 -0.0000000E+00
  0.3963783E-01  0.5424199E-01  0.4908264E-01  -0.0000000E+00  0.1000000E+01 -0.0000000E+00
           4
  0.5430399E-01 -0.5424199E-01 -0.3211448E-01   0.7565618E+00 -0.2104776E-15 -0.6539222E+00
  0.3963783E-01 -0.5424199E-01 -0.4908264E-01   0.7565618E+00 -0.2104776E-15 -0.6539222E+00
  0.3963783E-01  0.5424199E-01 -0.4908264E-01   0.7565618E+00 -0.2104776E-15 -0.6539222E+00
  0.5430399E-01  0.5424199E-01 -0.3211448E-01   0.7565618E+00 -0.2104776E-15 -0.6539222E+00
           4
  0.3963783E-01 -0.5424199E-01  0.4908264E-01   0.9840761E+00  0.1107236E-15  0.1777479E+00
  0.5430399E-01 -0.5424199E-01 -0.3211448E-01   0.9840761E+00  0.1107236E-15  0.1777479E+00
  0.5430399E-01  0.5424199E-01 -0.3211448E-01   0.9840761E+00  0.1107236E-15  0.1777479E+00
  0.3963783E-01  0.5424199E-01  0.4908264E-01   0.9840761E+00  0.1107236E-15  0.1777479E+00
 BRILLOUIN-ZONE-CONVCELL_END
 ATOMS
   19    0.0000000000    4.6494608400    0.0000000000    0.0000000000   -0.0002141100    0.0000000000
   19    5.3224434610    4.5022405030    0.0000000000    0.0000000000   -0.0001734500    0.0000000000
   19    7.9358653190    0.0391951770    0.1674371820    0.0001604900    0.0000037400   -0.0004281100
   12   -0.9200003200    6.2129652180    5.0934506540    0.0000000000   -0.0004099900    0.0000000000
   12    4.4024431420    6.1620115400    5.0934506540    0.0000000000   -0.0003075200    0.0000000000
   12    1.7634072620    4.5969692640    5.1005267030    0.0000915100   -0.0001895200    0.0001074500
   12    7.0414790210    4.5969692640    5.0863746050   -0.0000915100   -0.0001895200   -0.0001074500
   12    1.6641184140    7.7553653340    5.1034033060    0.0000066100   -0.0000282100   -0.0000142700
   12    7.1407678700    7.7553653340    5.0834980010   -0.0000066100   -0.0000282100    0.0000142700
   12    1.7473233050    1.5061640630    5.1328855980   -0.0000690300   -0.0001554200    0.0002469900
   12    7.0575629790    1.5061640630    5.0540157100    0.0000690300   -0.0001554200   -0.0002469900
   12    4.4024431420    3.0634018460    5.0934506540    0.0000000000    0.0000980800    0.0000000000
   12    4.4024431420    0.0276410160    5.0934506540    0.0000000000   -0.0000537800    0.0000000000
   14    0.0388201020    1.5447539080    2.2388275130   -0.0004239500    0.0000705000   -0.0000123600
   14    5.3475689690    1.5383439430    2.2955417730    0.0000147500   -0.0001627500    0.0001138300
   14    3.4573176340    1.5383439430    7.8913595350   -0.0000147500   -0.0001627500   -0.0001138300
   14    8.7660659900    1.5447539080    7.9480737950    0.0004239500    0.0000705000    0.0000123600
   14    3.5486071160    7.7025584690    7.8213655950    0.0000646100   -0.0001091500    0.0002643300
   14    8.8674652900    7.6829797180    7.8279576490    0.0000624100    0.0002355200    0.0000718400
   14   -0.0625789210    7.6829797180    2.3589436590   -0.0000624100    0.0002355200   -0.0000718400
   14    5.2562791680    7.7025584690    2.3655357120   -0.0000646100   -0.0001091500   -0.0002643300
   14    2.5726903250    6.1705881540    2.3377622240   -0.0002109600    0.0000581700    0.0000529600
   14    7.9119843600    6.1727939030    2.3260763450    0.0002062900   -0.0000761700    0.0001902300
   14    0.8929019780    6.1727939030    7.8608246580   -0.0002062900   -0.0000761700   -0.0001902300
   14    6.2321960140    6.1705881540    7.8491387780    0.0002109600    0.0000581700   -0.0000529600
   13    0.7733938010    3.0565186520    7.9427672760   -0.0002018800   -0.0002983700    0.0002561000
   13    6.1246156940    3.0627680520    7.8406664030    0.0000058500   -0.0002953100   -0.0000720600
   13    2.6802705900    3.0627680520    2.3462349050   -0.0000058500   -0.0002953100    0.0000720600
   13    8.0314923230    3.0565186520    2.2441340320    0.0002018800   -0.0002983700   -0.0002561000
    8   -0.0416720090    1.7021876620    3.8951494970   -0.0005371900    0.0002846300   -0.0003263700
    8    5.2972718740    1.5220997230    3.9312438280   -0.0004705000    0.0001239000    0.0002217900
    8    3.5076140910    1.5220997230    6.2556574800    0.0004705000    0.0001239000   -0.0002217900
    8    8.8465584520    1.7021876620    6.2917518110    0.0005371900    0.0002846300    0.0003263700
    8    3.5237786270    7.6891176550    6.2018273890   -0.0000245700   -0.0001231600    0.0000922600
    8    8.8163284810    7.5749859990    6.2402370140    0.0001689000    0.0001452100    0.0002480700
    8   -0.0114423570    7.5749859990    3.9466642940   -0.0001689000    0.0001452100   -0.0002480700
    8    5.2811079760    7.6891176550    3.9850739200    0.0000245700   -0.0001231600   -0.0000922600
    8    2.5930168780    6.1784426330    3.9689515320   -0.0000092100   -0.0000197500    0.0002641400
    8    7.9435104730    6.1507758660    3.9547451250    0.0000467800    0.0000898200    0.0002753700
    8    0.8613740020    6.1507758660    6.2321661960   -0.0000467800    0.0000898200   -0.0002753700
    8    6.2118675970    6.1784426330    6.2179597900    0.0000092100   -0.0000197500   -0.0002641400
    8    0.6864929870    3.0664302660    6.1603315070   -0.0000272000    0.0000407200   -0.0000197200
    8    6.1848881000    3.0640599590    6.0987638720    0.0003236400    0.0001521900   -0.0003355500
    8    2.6200086580    3.0640599590    4.0881374360   -0.0003236400    0.0001521900    0.0003355500
    8    8.1184040800    3.0664302660    4.0265698010    0.0000272000    0.0000407200    0.0000197200
    8    1.5224961100    1.8895582060    1.6999548110   -0.0004848500    0.0002469900    0.0001757200
    8    6.7763575790    1.9949806380    1.6744724550   -0.0002678400    0.0001001800    0.0001250300
    8    2.0285289960    1.9949806380    8.5124290060    0.0002678400    0.0001001800   -0.0001250300
    8    7.2823898270    1.8895582060    8.4869466500    0.0004848500    0.0002469900   -0.0001757200
    8   -0.2953457120    9.2085748710    1.7867673030    0.0000421200    0.0003286900    0.0004609400
    8    5.0305174890    9.2060461420    1.7358090640    0.0000662200   -0.0000690200    0.0001182600
    8    3.7743691410    9.2060461420    8.4510920910   -0.0000662200   -0.0000690200   -0.0001182600
    8    9.1002426360    9.2085748710    8.4001338520   -0.0000421200    0.0003286900   -0.0004609400
    8    2.1485470420    7.0906230830    8.4500965580   -0.0001036400    0.0001917500   -0.0002351800
    8    7.4368139860    7.1408259910    8.4811925510    0.0002127000    0.0000049400    0.0001187800
    8    1.3680720830    7.1408259910    1.7057090620   -0.0002127000    0.0000049400   -0.0001187800
    8    6.6563391860    7.0906230830    1.7368050560    0.0001036400    0.0001917500    0.0002351800
    8    4.0150965250    6.7792353990    1.7649147540   -0.0000923700   -0.0000396300   -0.0002540500
    8    9.3323083970    6.7969423870    1.7148777190    0.0002947500   -0.0000843000    0.0000148300
    8   -0.5274205090    6.7969423870    8.4720134120   -0.0002947500   -0.0000843000   -0.0000148300
    8    4.7897919160    6.7792353990    8.4219763770    0.0000923700   -0.0000396300    0.0002540500
    8    2.3339685750    4.6904052610    1.7171010210    0.0001340200    0.0001012400   -0.0002798100
    8    7.7243868890    4.6960579090    1.6843937010   -0.0002365100    0.0000030700    0.0000673300
    8    1.0804997040    4.6960579090    8.5025076070    0.0002365100    0.0000030700   -0.0000673300
    8    6.4709174000    4.6904052610    8.4698002870   -0.0001340200    0.0001012400    0.0002798100
    8   -0.7784380790    2.5458725180    8.5984159010   -0.0000774700   -0.0003074400    0.0001470700
    8    4.5776505170    2.5483110470    8.4990141460   -0.0000216600   -0.0001752400    0.0002283400
    8    4.2272358220    2.5483110470    1.6878868570    0.0000216600   -0.0001752400   -0.0002283400
    8    9.5833245780    2.5458725180    1.5884851020    0.0000774700   -0.0003074400   -0.0001470700
    8   -0.0809950280    4.5538293430    4.0979882970    0.0000078500    0.0002818700   -0.0000842500
    8    5.2881280210    4.6400393570    4.0280065600    0.0001658100    0.0002371300   -0.0002631600
    8    3.5167579960    4.6400393570    6.1588944530   -0.0001658100    0.0002371300    0.0002631600
    8    8.8858816420    4.5538293430    6.0889127150   -0.0000078500    0.0002818700    0.0000842500
    8    2.6439308110    0.0044253190    4.0409733640   -0.0002015400    0.0003573400    0.0002330100
    8    7.8501267540    0.0242889420    3.9408383910    0.0001870000   -0.0002856000   -0.0002621500
    8    0.9547595830    0.0242889420    6.2460626220   -0.0001870000   -0.0002856000    0.0002621500
    8    6.1609555260    0.0044253190    6.1459276490    0.0002015400    0.0003573400   -0.0002330100
    1   -0.0657615470    4.4722981140    3.1321448230    0.0001271500   -0.0000177300    0.0000274300
    1    5.2645024470    4.5870563210    3.0637986510   -0.0000731100    0.0002502400   -0.0001226800
    1    3.5403838370    4.5870563210    7.1231026570    0.0000731100    0.0002502400    0.0001226800
    1    8.8706477030    4.4722981140    7.0547564850   -0.0001271500   -0.0000177300   -0.0000274300
    1    2.6375206650    0.1306685130    3.0825162820   -0.0001694700   -0.0000066900   -0.0002200300
    1    8.8191731140    9.1939769780    3.9968838520    0.0000457300    0.0000906200    0.0000254300
    1   -0.0142761020    9.1939769780    6.1900177620   -0.0000457300    0.0000906200   -0.0000254300
    1    6.1673656190    0.1306685130    7.1043850260    0.0001694700   -0.0000066900    0.0002200300
   22   -0.9200003200    2.9055570300    5.0934506540    0.0000000000   -0.0008492600    0.0000000000
   19   -1.8400006390    4.6494608400   10.1869013080    0.0000000000   -0.0002141100    0.0000000000
   19    3.4824428220    4.5022405030   10.1869013080    0.0000000000   -0.0001734500    0.0000000000
   19    0.8690209650    0.0391951770   10.0194641260   -0.0001604900    0.0000037400    0.0004281100
   19   10.6448869230    4.6494608400    0.0000000000    0.0000000000   -0.0002141100    0.0000000000
   12    9.7248866030    6.2129652180    5.0934506540    0.0000000000   -0.0004099900    0.0000000000
   22    9.7248866030    2.9055570300    5.0934506540    0.0000000000   -0.0008492600    0.0000000000
   19    8.8048862840    4.6494608400   10.1869013080    0.0000000000   -0.0002141100    0.0000000000
 FRAMES
1      0.0000000000    0.0000000000    0.0000000000     10.6448869230    0.0000000000    0.0000000000
1      0.0000000000    0.0000000000    0.0000000000      0.0000000000    9.2179504760    0.0000000000
1      0.0000000000    0.0000000000    0.0000000000     -1.8400006390    0.0000000000   10.1869013080
1     -1.8400006390    0.0000000000   10.1869013080      8.8048862840    0.0000000000   10.1869013080
1     -1.8400006390    0.0000000000   10.1869013080     -1.8400006390    9.2179504760   10.1869013080
1      0.0000000000    9.2179504760    0.0000000000     10.6448869230    9.2179504760    0.0000000000
1      0.0000000000    9.2179504760    0.0000000000     -1.8400006390    9.2179504760   10.1869013080
1     -1.8400006390    9.2179504760   10.1869013080      8.8048862840    9.2179504760   10.1869013080
1     10.6448869230    0.0000000000    0.0000000000     10.6448869230    9.2179504760    0.0000000000
1     10.6448869230    0.0000000000    0.0000000000      8.8048862840    0.0000000000   10.1869013080
1      8.8048862840    0.0000000000   10.1869013080      8.8048862840    9.2179504760   10.1869013080
1     10.6448869230    9.2179504760    0.0000000000      8.8048862840    9.2179504760   10.1869013080
