 INFO
nunit      1    1    1
unit   cell
celltype   primcell
shape   parapipedal
 END_INFO
 DIM-GROUP
           3           1
 PRIMVEC
    5.2989900630    0.0000000000    0.0000000000
    0.0000000000    9.1953692500    0.0000000000
   -1.8126838200    0.0000000000   10.0463340640
 CONVVEC
    5.2989900630    0.0000000000    0.0000000000
    0.0000000000    9.1953692500    0.0000000000
   -1.8126838200    0.0000000000   10.0463340640
 PRIMCOORD
          44           1
 19      0.0000000000     4.5345693470     0.0000000000     0.0000000000     0.0005072200     0.0000000000
 19      2.6494950310     0.0341275880     0.0000000000     0.0000000000    -0.0006999600     0.0000000000
 12     -0.9063419100     0.0408154760     5.0231670320     0.0000000000    -0.0002792800     0.0000000000
 12     -0.9063419100     3.0342200560     5.0231670320     0.0000000000     0.0007267400     0.0000000000
 12      1.7431531220     4.5298429440     5.0231670320     0.0000000000     0.0003571900     0.0000000000
 12      1.7431531220     7.6777258230     5.0231670320     0.0000000000    -0.0008694200     0.0000000000
 12      1.7431531220     1.5813015200     5.0231670320     0.0000000000     0.0000144100     0.0000000000
 14      0.0396548350     1.5192779120     2.2266912690    -0.0003380900    -0.0004241800     0.0004668600
 14      3.4466512800     1.5192779120     7.8196430970     0.0003380900    -0.0004241800    -0.0004668600
 14      3.5667323010     7.6787915750     7.7611563670    -0.0000098400    -0.0002886100    -0.0001307800
 14     -0.0804260580     7.6787915750     2.2851776970     0.0000098400    -0.0002886100     0.0001307800
 14      2.5559918010     6.1270429610     2.2597960220    -0.0001600600     0.0006063300     0.0003710800
 14      0.9303144690     6.1270429610     7.7865378920     0.0001600600     0.0006063300    -0.0003710800
 13      0.7948857410     3.0432103210     7.8015138480     0.0001806400     0.0001648000    -0.0006144200
 13      2.6914205030     3.0432103210     2.2448202170    -0.0001806400     0.0001648000     0.0006144200
  8     -0.0214822160     1.4986068800     3.8590404890     0.0004825600     0.0004735300     0.0000557100
  8      3.5077882480     1.4986068800     6.1872938670    -0.0004825600     0.0004735300    -0.0000557100
  8      3.5158709600     7.6941834240     6.1416104510     0.0000231600     0.0002700700     0.0001392100
  8     -0.0295647170     7.6941834240     3.9047236140    -0.0000231600     0.0002700700    -0.0001392100
  8      2.5450426880     6.1474362800     3.8840729740    -0.0000007600    -0.0001177400     0.0001966000
  8      0.9412635550     6.1474362800     6.1622610900     0.0000007600    -0.0001177400    -0.0001966000
  8      0.8165986580     3.0593182400     6.0705486580     0.0000586100    -0.0005296500    -0.0005903400
  8      2.6697075860     3.0593182400     3.9757854060    -0.0000586100    -0.0005296500     0.0005903400
  8      1.5243210610     1.8541874010     1.6527468510    -0.0000799900    -0.0003362500     0.0004254100
  8      1.9619852360     1.8541874010     8.3935869120     0.0000799900    -0.0003362500    -0.0004254100
  8      4.9598110170     9.1761726770     1.6655737610     0.0000549900    -0.0002243700    -0.0000115600
  8     -1.4735047460     9.1761726770     8.3807601530    -0.0000549900    -0.0002243700     0.0000115600
  8      2.1346800480     7.1233290930     8.3770036750     0.0005351800    -0.0005616000     0.0001864600
  8      1.3516261950     7.1233290930     1.6693303900    -0.0005351800    -0.0005616000    -0.0001864600
  8      4.0007791110     6.7340602900     1.6902344440    -0.0001936700     0.0002360800     0.0002357100
  8     -0.5144728680     6.7340602900     8.3560996210     0.0001936700     0.0002360800    -0.0002357100
  8      2.3330723290     4.6645600450     1.6090522350     0.0002736400     0.0003165600    -0.0003552200
  8      1.1532337280     4.6645600450     8.4372819810    -0.0002736400     0.0003165600     0.0003552200
  8     -0.7729387090     2.5548991020     8.4537287640     0.0000187500     0.0001312300     0.0001226600
  8      4.2592450320     2.5548991020     1.5926053010    -0.0000187500     0.0001312300    -0.0001226600
  8     -0.0133742150     4.5867995310     3.9528623730     0.0000668900    -0.0002962700    -0.0005246000
  8      3.4996805380     4.5867995310     6.0934716920    -0.0000668900    -0.0002962700     0.0005246000
  8      2.6343580150     9.1886649200     3.9903826050     0.0001010700     0.0009752200    -0.0002869400
  8      0.8519482830     9.1886649200     6.0559511580    -0.0001010700     0.0009752200     0.0002869400
  1     -0.0768876080     4.5806824200     2.9884699890    -0.0000828400    -0.0004227200    -0.0000287000
  1      3.5631940110     4.5806824200     7.0578640750     0.0000828400    -0.0004227200     0.0000287000
  1      2.6001131470     0.1515857920     3.0376726790    -0.0001356100    -0.0001187300    -0.0000471300
  1      0.8861930960     0.1515857920     7.0086613860     0.0001356100    -0.0001187300     0.0000471300
 26     -0.9063419100     6.0998575360     5.0231670320     0.0000000000     0.0005357400     0.0000000000
 CONVCOORD
          44           1
 19      0.0000000000     4.5345693470     0.0000000000
 19      2.6494950310     0.0341275880     0.0000000000
 12     -0.9063419100     0.0408154760     5.0231670320
 12     -0.9063419100     3.0342200560     5.0231670320
 12      1.7431531220     4.5298429440     5.0231670320
 12      1.7431531220     7.6777258230     5.0231670320
 12      1.7431531220     1.5813015200     5.0231670320
 14      0.0396548350     1.5192779120     2.2266912690
 14      3.4466512800     1.5192779120     7.8196430970
 14      3.5667323010     7.6787915750     7.7611563670
 14     -0.0804260580     7.6787915750     2.2851776970
 14      2.5559918010     6.1270429610     2.2597960220
 14      0.9303144690     6.1270429610     7.7865378920
 13      0.7948857410     3.0432103210     7.8015138480
 13      2.6914205030     3.0432103210     2.2448202170
  8     -0.0214822160     1.4986068800     3.8590404890
  8      3.5077882480     1.4986068800     6.1872938670
  8      3.5158709600     7.6941834240     6.1416104510
  8     -0.0295647170     7.6941834240     3.9047236140
  8      2.5450426880     6.1474362800     3.8840729740
  8      0.9412635550     6.1474362800     6.1622610900
  8      0.8165986580     3.0593182400     6.0705486580
  8      2.6697075860     3.0593182400     3.9757854060
  8      1.5243210610     1.8541874010     1.6527468510
  8      1.9619852360     1.8541874010     8.3935869120
  8      4.9598110170     9.1761726770     1.6655737610
  8     -1.4735047460     9.1761726770     8.3807601530
  8      2.1346800480     7.1233290930     8.3770036750
  8      1.3516261950     7.1233290930     1.6693303900
  8      4.0007791110     6.7340602900     1.6902344440
  8     -0.5144728680     6.7340602900     8.3560996210
  8      2.3330723290     4.6645600450     1.6090522350
  8      1.1532337280     4.6645600450     8.4372819810
  8     -0.7729387090     2.5548991020     8.4537287640
  8      4.2592450320     2.5548991020     1.5926053010
  8     -0.0133742150     4.5867995310     3.9528623730
  8      3.4996805380     4.5867995310     6.0934716920
  8      2.6343580150     9.1886649200     3.9903826050
  8      0.8519482830     9.1886649200     6.0559511580
  1     -0.0768876080     4.5806824200     2.9884699890
  1      3.5631940110     4.5806824200     7.0578640750
  1      2.6001131470     0.1515857920     3.0376726790
  1      0.8861930960     0.1515857920     7.0086613860
 26     -0.9063419100     6.0998575360     5.0231670320
 RECIP-PRIMVEC
    0.1887152057   -0.0000000000    0.0340503310

    0.0000000000    0.1087503909   -0.0000000000

    0.0000000000    0.0000000000    0.0995387963

 RECIP-CONVVEC
    0.1887152057   -0.0000000000    0.0340503310

    0.0000000000    0.1087503909   -0.0000000000

    0.0000000000    0.0000000000    0.0995387963

 WIGNER-SEITZ-PRIMCELL
           4
 -0.2649495E+01  0.4597685E+01 -0.4708646E+01  -0.3278435E+00 -0.1009766E-15 -0.9447320E+00
 -0.8368112E+00  0.4597685E+01 -0.5337688E+01  -0.3278435E+00 -0.1009766E-15 -0.9447320E+00
 -0.8368112E+00 -0.4597685E+01 -0.5337688E+01  -0.3278435E+00 -0.1009766E-15 -0.9447320E+00
 -0.2649495E+01 -0.4597685E+01 -0.4708646E+01  -0.3278435E+00 -0.1009766E-15 -0.9447320E+00
           4
 -0.2649495E+01  0.4597685E+01 -0.4708646E+01  -0.1000000E+01  0.4829488E-16  0.4554862E-32
 -0.2649495E+01 -0.4597685E+01 -0.4708646E+01  -0.1000000E+01  0.4829488E-16  0.4554862E-32
 -0.2649495E+01 -0.4597685E+01  0.4708646E+01  -0.1000000E+01  0.4829488E-16  0.4554862E-32
 -0.2649495E+01  0.4597685E+01  0.4708646E+01  -0.1000000E+01  0.4829488E-16  0.4554862E-32
           6
  0.2649495E+01 -0.4597685E+01  0.4708646E+01  -0.0000000E+00 -0.1000000E+01  0.1065828E-14
  0.8368112E+00 -0.4597685E+01  0.5337688E+01  -0.0000000E+00 -0.1000000E+01  0.1065828E-14
 -0.2649495E+01 -0.4597685E+01  0.4708646E+01  -0.0000000E+00 -0.1000000E+01  0.1065828E-14
 -0.2649495E+01 -0.4597685E+01 -0.4708646E+01  -0.0000000E+00 -0.1000000E+01  0.1065828E-14
 -0.8368112E+00 -0.4597685E+01 -0.5337688E+01  -0.0000000E+00 -0.1000000E+01  0.1065828E-14
  0.2649495E+01 -0.4597685E+01 -0.4708646E+01  -0.0000000E+00 -0.1000000E+01  0.1065828E-14
           4
  0.2649495E+01 -0.4597685E+01 -0.4708646E+01   0.1775651E+00 -0.2181216E-15 -0.9841091E+00
 -0.8368112E+00 -0.4597685E+01 -0.5337688E+01   0.1775651E+00 -0.2181216E-15 -0.9841091E+00
 -0.8368112E+00  0.4597685E+01 -0.5337688E+01   0.1775651E+00 -0.2181216E-15 -0.9841091E+00
  0.2649495E+01  0.4597685E+01 -0.4708646E+01   0.1775651E+00 -0.2181216E-15 -0.9841091E+00
           4
 -0.2649495E+01  0.4597685E+01  0.4708646E+01  -0.1775651E+00 -0.0000000E+00  0.9841091E+00
 -0.2649495E+01 -0.4597685E+01  0.4708646E+01  -0.1775651E+00 -0.0000000E+00  0.9841091E+00
  0.8368112E+00 -0.4597685E+01  0.5337688E+01  -0.1775651E+00 -0.0000000E+00  0.9841091E+00
  0.8368112E+00  0.4597685E+01  0.5337688E+01  -0.1775651E+00 -0.0000000E+00  0.9841091E+00
           6
  0.2649495E+01  0.4597685E+01 -0.4708646E+01   0.0000000E+00  0.1000000E+01  0.1065828E-14
 -0.8368112E+00  0.4597685E+01 -0.5337688E+01   0.0000000E+00  0.1000000E+01  0.1065828E-14
 -0.2649495E+01  0.4597685E+01 -0.4708646E+01   0.0000000E+00  0.1000000E+01  0.1065828E-14
 -0.2649495E+01  0.4597685E+01  0.4708646E+01   0.0000000E+00  0.1000000E+01  0.1065828E-14
  0.8368112E+00  0.4597685E+01  0.5337688E+01   0.0000000E+00  0.1000000E+01  0.1065828E-14
  0.2649495E+01  0.4597685E+01  0.4708646E+01   0.0000000E+00  0.1000000E+01  0.1065828E-14
           4
  0.2649495E+01  0.4597685E+01  0.4708646E+01   0.1000000E+01 -0.4829488E-16  0.0000000E+00
  0.2649495E+01 -0.4597685E+01  0.4708646E+01   0.1000000E+01 -0.4829488E-16  0.0000000E+00
  0.2649495E+01 -0.4597685E+01 -0.4708646E+01   0.1000000E+01 -0.4829488E-16  0.0000000E+00
  0.2649495E+01  0.4597685E+01 -0.4708646E+01   0.1000000E+01 -0.4829488E-16  0.0000000E+00
           4
  0.8368112E+00 -0.4597685E+01  0.5337688E+01   0.3278435E+00  0.3334111E-16  0.9447320E+00
  0.2649495E+01 -0.4597685E+01  0.4708646E+01   0.3278435E+00  0.3334111E-16  0.9447320E+00
  0.2649495E+01  0.4597685E+01  0.4708646E+01   0.3278435E+00  0.3334111E-16  0.9447320E+00
  0.8368112E+00  0.4597685E+01  0.5337688E+01   0.3278435E+00  0.3334111E-16  0.9447320E+00
 WIGNER-SEITZ-PRIMCELL_END
 WIGNER-SEITZ-CONVCELL
           4
 -0.2649495E+01  0.4597685E+01 -0.4708646E+01  -0.3278435E+00 -0.1009766E-15 -0.9447320E+00
 -0.8368112E+00  0.4597685E+01 -0.5337688E+01  -0.3278435E+00 -0.1009766E-15 -0.9447320E+00
 -0.8368112E+00 -0.4597685E+01 -0.5337688E+01  -0.3278435E+00 -0.1009766E-15 -0.9447320E+00
 -0.2649495E+01 -0.4597685E+01 -0.4708646E+01  -0.3278435E+00 -0.1009766E-15 -0.9447320E+00
           4
 -0.2649495E+01  0.4597685E+01 -0.4708646E+01  -0.1000000E+01  0.4829488E-16  0.4554862E-32
 -0.2649495E+01 -0.4597685E+01 -0.4708646E+01  -0.1000000E+01  0.4829488E-16  0.4554862E-32
 -0.2649495E+01 -0.4597685E+01  0.4708646E+01  -0.1000000E+01  0.4829488E-16  0.4554862E-32
 -0.2649495E+01  0.4597685E+01  0.4708646E+01  -0.1000000E+01  0.4829488E-16  0.4554862E-32
           6
  0.2649495E+01 -0.4597685E+01  0.4708646E+01  -0.0000000E+00 -0.1000000E+01  0.1065828E-14
  0.8368112E+00 -0.4597685E+01  0.5337688E+01  -0.0000000E+00 -0.1000000E+01  0.1065828E-14
 -0.2649495E+01 -0.4597685E+01  0.4708646E+01  -0.0000000E+00 -0.1000000E+01  0.1065828E-14
 -0.2649495E+01 -0.4597685E+01 -0.4708646E+01  -0.0000000E+00 -0.1000000E+01  0.1065828E-14
 -0.8368112E+00 -0.4597685E+01 -0.5337688E+01  -0.0000000E+00 -0.1000000E+01  0.1065828E-14
  0.2649495E+01 -0.4597685E+01 -0.4708646E+01  -0.0000000E+00 -0.1000000E+01  0.1065828E-14
           4
  0.2649495E+01 -0.4597685E+01 -0.4708646E+01   0.1775651E+00 -0.2181216E-15 -0.9841091E+00
 -0.8368112E+00 -0.4597685E+01 -0.5337688E+01   0.1775651E+00 -0.2181216E-15 -0.9841091E+00
 -0.8368112E+00  0.4597685E+01 -0.5337688E+01   0.1775651E+00 -0.2181216E-15 -0.9841091E+00
  0.2649495E+01  0.4597685E+01 -0.4708646E+01   0.1775651E+00 -0.2181216E-15 -0.9841091E+00
           4
 -0.2649495E+01  0.4597685E+01  0.4708646E+01  -0.1775651E+00 -0.0000000E+00  0.9841091E+00
 -0.2649495E+01 -0.4597685E+01  0.4708646E+01  -0.1775651E+00 -0.0000000E+00  0.9841091E+00
  0.8368112E+00 -0.4597685E+01  0.5337688E+01  -0.1775651E+00 -0.0000000E+00  0.9841091E+00
  0.8368112E+00  0.4597685E+01  0.5337688E+01  -0.1775651E+00 -0.0000000E+00  0.9841091E+00
           6
  0.2649495E+01  0.4597685E+01 -0.4708646E+01   0.0000000E+00  0.1000000E+01  0.1065828E-14
 -0.8368112E+00  0.4597685E+01 -0.5337688E+01   0.0000000E+00  0.1000000E+01  0.1065828E-14
 -0.2649495E+01  0.4597685E+01 -0.4708646E+01   0.0000000E+00  0.1000000E+01  0.1065828E-14
 -0.2649495E+01  0.4597685E+01  0.4708646E+01   0.0000000E+00  0.1000000E+01  0.1065828E-14
  0.8368112E+00  0.4597685E+01  0.5337688E+01   0.0000000E+00  0.1000000E+01  0.1065828E-14
  0.2649495E+01  0.4597685E+01  0.4708646E+01   0.0000000E+00  0.1000000E+01  0.1065828E-14
           4
  0.2649495E+01  0.4597685E+01  0.4708646E+01   0.1000000E+01 -0.4829488E-16  0.0000000E+00
  0.2649495E+01 -0.4597685E+01  0.4708646E+01   0.1000000E+01 -0.4829488E-16  0.0000000E+00
  0.2649495E+01 -0.4597685E+01 -0.4708646E+01   0.1000000E+01 -0.4829488E-16  0.0000000E+00
  0.2649495E+01  0.4597685E+01 -0.4708646E+01   0.1000000E+01 -0.4829488E-16  0.0000000E+00
           4
  0.8368112E+00 -0.4597685E+01  0.5337688E+01   0.3278435E+00  0.3334111E-16  0.9447320E+00
  0.2649495E+01 -0.4597685E+01  0.4708646E+01   0.3278435E+00  0.3334111E-16  0.9447320E+00
  0.2649495E+01  0.4597685E+01  0.4708646E+01   0.3278435E+00  0.3334111E-16  0.9447320E+00
  0.8368112E+00  0.4597685E+01  0.5337688E+01   0.3278435E+00  0.3334111E-16  0.9447320E+00
 WIGNER-SEITZ-CONVCELL_END
 BRILLOUIN-ZONE-PRIMCELL
           4
  0.1002657E+00  0.5437520E-01 -0.1571907E-01   0.9447320E+00  0.5532186E-16 -0.3278435E+00
  0.1002657E+00 -0.5437520E-01 -0.1571907E-01   0.9447320E+00  0.5532186E-16 -0.3278435E+00
  0.8844948E-01 -0.5437520E-01 -0.4976940E-01   0.9447320E+00  0.5532186E-16 -0.3278435E+00
  0.8844948E-01  0.5437520E-01 -0.4976940E-01   0.9447320E+00  0.5532186E-16 -0.3278435E+00
           4
 -0.8844948E-01  0.5437520E-01 -0.4976940E-01   0.0000000E+00 -0.5426985E-16 -0.1000000E+01
  0.8844948E-01  0.5437520E-01 -0.4976940E-01   0.0000000E+00 -0.5426985E-16 -0.1000000E+01
  0.8844948E-01 -0.5437520E-01 -0.4976940E-01   0.0000000E+00 -0.5426985E-16 -0.1000000E+01
 -0.8844948E-01 -0.5437520E-01 -0.4976940E-01   0.0000000E+00 -0.5426985E-16 -0.1000000E+01
           6
  0.8844948E-01 -0.5437520E-01  0.4976940E-01   0.0000000E+00 -0.1000000E+01  0.2879941E-15
 -0.8844948E-01 -0.5437520E-01  0.4976940E-01   0.0000000E+00 -0.1000000E+01  0.2879941E-15
 -0.1002657E+00 -0.5437520E-01  0.1571907E-01   0.0000000E+00 -0.1000000E+01  0.2879941E-15
 -0.8844948E-01 -0.5437520E-01 -0.4976940E-01   0.0000000E+00 -0.1000000E+01  0.2879941E-15
  0.8844948E-01 -0.5437520E-01 -0.4976940E-01   0.0000000E+00 -0.1000000E+01  0.2879941E-15
  0.1002657E+00 -0.5437520E-01 -0.1571907E-01   0.0000000E+00 -0.1000000E+01  0.2879941E-15
           4
  0.8844948E-01  0.5437520E-01  0.4976940E-01   0.9841091E+00 -0.3370857E-15  0.1775651E+00
  0.8844948E-01 -0.5437520E-01  0.4976940E-01   0.9841091E+00 -0.3370857E-15  0.1775651E+00
  0.1002657E+00 -0.5437520E-01 -0.1571907E-01   0.9841091E+00 -0.3370857E-15  0.1775651E+00
  0.1002657E+00  0.5437520E-01 -0.1571907E-01   0.9841091E+00 -0.3370857E-15  0.1775651E+00
           4
 -0.8844948E-01  0.5437520E-01 -0.4976940E-01  -0.9841091E+00 -0.1498159E-15 -0.1775651E+00
 -0.8844948E-01 -0.5437520E-01 -0.4976940E-01  -0.9841091E+00 -0.1498159E-15 -0.1775651E+00
 -0.1002657E+00 -0.5437520E-01  0.1571907E-01  -0.9841091E+00 -0.1498159E-15 -0.1775651E+00
 -0.1002657E+00  0.5437520E-01  0.1571907E-01  -0.9841091E+00 -0.1498159E-15 -0.1775651E+00
           6
  0.1002657E+00  0.5437520E-01 -0.1571907E-01  -0.0000000E+00  0.1000000E+01  0.2879941E-15
  0.8844948E-01  0.5437520E-01 -0.4976940E-01  -0.0000000E+00  0.1000000E+01  0.2879941E-15
 -0.8844948E-01  0.5437520E-01 -0.4976940E-01  -0.0000000E+00  0.1000000E+01  0.2879941E-15
 -0.1002657E+00  0.5437520E-01  0.1571907E-01  -0.0000000E+00  0.1000000E+01  0.2879941E-15
 -0.8844948E-01  0.5437520E-01  0.4976940E-01  -0.0000000E+00  0.1000000E+01  0.2879941E-15
  0.8844948E-01  0.5437520E-01  0.4976940E-01  -0.0000000E+00  0.1000000E+01  0.2879941E-15
           4
  0.8844948E-01 -0.5437520E-01  0.4976940E-01  -0.0000000E+00 -0.0000000E+00  0.1000000E+01
  0.8844948E-01  0.5437520E-01  0.4976940E-01  -0.0000000E+00 -0.0000000E+00  0.1000000E+01
 -0.8844948E-01  0.5437520E-01  0.4976940E-01  -0.0000000E+00 -0.0000000E+00  0.1000000E+01
 -0.8844948E-01 -0.5437520E-01  0.4976940E-01  -0.0000000E+00 -0.0000000E+00  0.1000000E+01
           4
 -0.1002657E+00  0.5437520E-01  0.1571907E-01  -0.9447320E+00 -0.1383046E-15  0.3278435E+00
 -0.1002657E+00 -0.5437520E-01  0.1571907E-01  -0.9447320E+00 -0.1383046E-15  0.3278435E+00
 -0.8844948E-01 -0.5437520E-01  0.4976940E-01  -0.9447320E+00 -0.1383046E-15  0.3278435E+00
 -0.8844948E-01  0.5437520E-01  0.4976940E-01  -0.9447320E+00 -0.1383046E-15  0.3278435E+00
 BRILLOUIN-ZONE-PRIMCELL_END
 BRILLOUIN-ZONE-CONVCELL
           4
  0.1002657E+00  0.5437520E-01 -0.1571907E-01   0.9447320E+00  0.5532186E-16 -0.3278435E+00
  0.1002657E+00 -0.5437520E-01 -0.1571907E-01   0.9447320E+00  0.5532186E-16 -0.3278435E+00
  0.8844948E-01 -0.5437520E-01 -0.4976940E-01   0.9447320E+00  0.5532186E-16 -0.3278435E+00
  0.8844948E-01  0.5437520E-01 -0.4976940E-01   0.9447320E+00  0.5532186E-16 -0.3278435E+00
           4
 -0.8844948E-01  0.5437520E-01 -0.4976940E-01   0.0000000E+00 -0.5426985E-16 -0.1000000E+01
  0.8844948E-01  0.5437520E-01 -0.4976940E-01   0.0000000E+00 -0.5426985E-16 -0.1000000E+01
  0.8844948E-01 -0.5437520E-01 -0.4976940E-01   0.0000000E+00 -0.5426985E-16 -0.1000000E+01
 -0.8844948E-01 -0.5437520E-01 -0.4976940E-01   0.0000000E+00 -0.5426985E-16 -0.1000000E+01
           6
  0.8844948E-01 -0.5437520E-01  0.4976940E-01   0.0000000E+00 -0.1000000E+01  0.2879941E-15
 -0.8844948E-01 -0.5437520E-01  0.4976940E-01   0.0000000E+00 -0.1000000E+01  0.2879941E-15
 -0.1002657E+00 -0.5437520E-01  0.1571907E-01   0.0000000E+00 -0.1000000E+01  0.2879941E-15
 -0.8844948E-01 -0.5437520E-01 -0.4976940E-01   0.0000000E+00 -0.1000000E+01  0.2879941E-15
  0.8844948E-01 -0.5437520E-01 -0.4976940E-01   0.0000000E+00 -0.1000000E+01  0.2879941E-15
  0.1002657E+00 -0.5437520E-01 -0.1571907E-01   0.0000000E+00 -0.1000000E+01  0.2879941E-15
           4
  0.8844948E-01  0.5437520E-01  0.4976940E-01   0.9841091E+00 -0.3370857E-15  0.1775651E+00
  0.8844948E-01 -0.5437520E-01  0.4976940E-01   0.9841091E+00 -0.3370857E-15  0.1775651E+00
  0.1002657E+00 -0.5437520E-01 -0.1571907E-01   0.9841091E+00 -0.3370857E-15  0.1775651E+00
  0.1002657E+00  0.5437520E-01 -0.1571907E-01   0.9841091E+00 -0.3370857E-15  0.1775651E+00
           4
 -0.8844948E-01  0.5437520E-01 -0.4976940E-01  -0.9841091E+00 -0.1498159E-15 -0.1775651E+00
 -0.8844948E-01 -0.5437520E-01 -0.4976940E-01  -0.9841091E+00 -0.1498159E-15 -0.1775651E+00
 -0.1002657E+00 -0.5437520E-01  0.1571907E-01  -0.9841091E+00 -0.1498159E-15 -0.1775651E+00
 -0.1002657E+00  0.5437520E-01  0.1571907E-01  -0.9841091E+00 -0.1498159E-15 -0.1775651E+00
           6
  0.1002657E+00  0.5437520E-01 -0.1571907E-01  -0.0000000E+00  0.1000000E+01  0.2879941E-15
  0.8844948E-01  0.5437520E-01 -0.4976940E-01  -0.0000000E+00  0.1000000E+01  0.2879941E-15
 -0.8844948E-01  0.5437520E-01 -0.4976940E-01  -0.0000000E+00  0.1000000E+01  0.2879941E-15
 -0.1002657E+00  0.5437520E-01  0.1571907E-01  -0.0000000E+00  0.1000000E+01  0.2879941E-15
 -0.8844948E-01  0.5437520E-01  0.4976940E-01  -0.0000000E+00  0.1000000E+01  0.2879941E-15
  0.8844948E-01  0.5437520E-01  0.4976940E-01  -0.0000000E+00  0.1000000E+01  0.2879941E-15
           4
  0.8844948E-01 -0.5437520E-01  0.4976940E-01  -0.0000000E+00 -0.0000000E+00  0.1000000E+01
  0.8844948E-01  0.5437520E-01  0.4976940E-01  -0.0000000E+00 -0.0000000E+00  0.1000000E+01
 -0.8844948E-01  0.5437520E-01  0.4976940E-01  -0.0000000E+00 -0.0000000E+00  0.1000000E+01
 -0.8844948E-01 -0.5437520E-01  0.4976940E-01  -0.0000000E+00 -0.0000000E+00  0.1000000E+01
           4
 -0.1002657E+00  0.5437520E-01  0.1571907E-01  -0.9447320E+00 -0.1383046E-15  0.3278435E+00
 -0.1002657E+00 -0.5437520E-01  0.1571907E-01  -0.9447320E+00 -0.1383046E-15  0.3278435E+00
 -0.8844948E-01 -0.5437520E-01  0.4976940E-01  -0.9447320E+00 -0.1383046E-15  0.3278435E+00
 -0.8844948E-01  0.5437520E-01  0.4976940E-01  -0.9447320E+00 -0.1383046E-15  0.3278435E+00
 BRILLOUIN-ZONE-CONVCELL_END
 ATOMS
   19    0.0000000000    4.5345693470    0.0000000000    0.0000000000    0.0005072200    0.0000000000
   19    2.6494950310    0.0341275880    0.0000000000    0.0000000000   -0.0006999600    0.0000000000
   12   -0.9063419100    0.0408154760    5.0231670320    0.0000000000   -0.0002792800    0.0000000000
   12   -0.9063419100    3.0342200560    5.0231670320    0.0000000000    0.0007267400    0.0000000000
   12    1.7431531220    4.5298429440    5.0231670320    0.0000000000    0.0003571900    0.0000000000
   12    1.7431531220    7.6777258230    5.0231670320    0.0000000000   -0.0008694200    0.0000000000
   12    1.7431531220    1.5813015200    5.0231670320    0.0000000000    0.0000144100    0.0000000000
   14    0.0396548350    1.5192779120    2.2266912690   -0.0003380900   -0.0004241800    0.0004668600
   14    3.4466512800    1.5192779120    7.8196430970    0.0003380900   -0.0004241800   -0.0004668600
   14    3.5667323010    7.6787915750    7.7611563670   -0.0000098400   -0.0002886100   -0.0001307800
   14   -0.0804260580    7.6787915750    2.2851776970    0.0000098400   -0.0002886100    0.0001307800
   14    2.5559918010    6.1270429610    2.2597960220   -0.0001600600    0.0006063300    0.0003710800
   14    0.9303144690    6.1270429610    7.7865378920    0.0001600600    0.0006063300   -0.0003710800
   13    0.7948857410    3.0432103210    7.8015138480    0.0001806400    0.0001648000   -0.0006144200
   13    2.6914205030    3.0432103210    2.2448202170   -0.0001806400    0.0001648000    0.0006144200
    8   -0.0214822160    1.4986068800    3.8590404890    0.0004825600    0.0004735300    0.0000557100
    8    3.5077882480    1.4986068800    6.1872938670   -0.0004825600    0.0004735300   -0.0000557100
    8    3.5158709600    7.6941834240    6.1416104510    0.0000231600    0.0002700700    0.0001392100
    8   -0.0295647170    7.6941834240    3.9047236140   -0.0000231600    0.0002700700   -0.0001392100
    8    2.5450426880    6.1474362800    3.8840729740   -0.0000007600   -0.0001177400    0.0001966000
    8    0.9412635550    6.1474362800    6.1622610900    0.0000007600   -0.0001177400   -0.0001966000
    8    0.8165986580    3.0593182400    6.0705486580    0.0000586100   -0.0005296500   -0.0005903400
    8    2.6697075860    3.0593182400    3.9757854060   -0.0000586100   -0.0005296500    0.0005903400
    8    1.5243210610    1.8541874010    1.6527468510   -0.0000799900   -0.0003362500    0.0004254100
    8    1.9619852360    1.8541874010    8.3935869120    0.0000799900   -0.0003362500   -0.0004254100
    8    4.9598110170    9.1761726770    1.6655737610    0.0000549900   -0.0002243700   -0.0000115600
    8   -1.4735047460    9.1761726770    8.3807601530   -0.0000549900   -0.0002243700    0.0000115600
    8    2.1346800480    7.1233290930    8.3770036750    0.0005351800   -0.0005616000    0.0001864600
    8    1.3516261950    7.1233290930    1.6693303900   -0.0005351800   -0.0005616000   -0.0001864600
    8    4.0007791110    6.7340602900    1.6902344440   -0.0001936700    0.0002360800    0.0002357100
    8   -0.5144728680    6.7340602900    8.3560996210    0.0001936700    0.0002360800   -0.0002357100
    8    2.3330723290    4.6645600450    1.6090522350    0.0002736400    0.0003165600   -0.0003552200
    8    1.1532337280    4.6645600450    8.4372819810   -0.0002736400    0.0003165600    0.0003552200
    8   -0.7729387090    2.5548991020    8.4537287640    0.0000187500    0.0001312300    0.0001226600
    8    4.2592450320    2.5548991020    1.5926053010   -0.0000187500    0.0001312300   -0.0001226600
    8   -0.0133742150    4.5867995310    3.9528623730    0.0000668900   -0.0002962700   -0.0005246000
    8    3.4996805380    4.5867995310    6.0934716920   -0.0000668900   -0.0002962700    0.0005246000
    8    2.6343580150    9.1886649200    3.9903826050    0.0001010700    0.0009752200   -0.0002869400
    8    0.8519482830    9.1886649200    6.0559511580   -0.0001010700    0.0009752200    0.0002869400
    1   -0.0768876080    4.5806824200    2.9884699890   -0.0000828400   -0.0004227200   -0.0000287000
    1    3.5631940110    4.5806824200    7.0578640750    0.0000828400   -0.0004227200    0.0000287000
    1    2.6001131470    0.1515857920    3.0376726790   -0.0001356100   -0.0001187300   -0.0000471300
    1    0.8861930960    0.1515857920    7.0086613860    0.0001356100   -0.0001187300    0.0000471300
   26   -0.9063419100    6.0998575360    5.0231670320    0.0000000000    0.0005357400    0.0000000000
   19   -1.8126838200    4.5345693470   10.0463340640    0.0000000000    0.0005072200    0.0000000000
   19    0.8368112110    0.0341275880   10.0463340640    0.0000000000   -0.0006999600    0.0000000000
   19    5.2989900630    4.5345693470    0.0000000000    0.0000000000    0.0005072200    0.0000000000
   12    4.3926481530    0.0408154760    5.0231670320    0.0000000000   -0.0002792800    0.0000000000
   12    4.3926481530    3.0342200560    5.0231670320    0.0000000000    0.0007267400    0.0000000000
   26    4.3926481530    6.0998575360    5.0231670320    0.0000000000    0.0005357400    0.0000000000
   19    3.4863062430    4.5345693470   10.0463340640    0.0000000000    0.0005072200    0.0000000000
 FRAMES
1      0.0000000000    0.0000000000    0.0000000000      5.2989900630    0.0000000000    0.0000000000
1      0.0000000000    0.0000000000    0.0000000000      0.0000000000    9.1953692500    0.0000000000
1      0.0000000000    0.0000000000    0.0000000000     -1.8126838200    0.0000000000   10.0463340640
1     -1.8126838200    0.0000000000   10.0463340640      3.4863062430    0.0000000000   10.0463340640
1     -1.8126838200    0.0000000000   10.0463340640     -1.8126838200    9.1953692500   10.0463340640
1      0.0000000000    9.1953692500    0.0000000000      5.2989900630    9.1953692500    0.0000000000
1      0.0000000000    9.1953692500    0.0000000000     -1.8126838200    9.1953692500   10.0463340640
1     -1.8126838200    9.1953692500   10.0463340640      3.4863062430    9.1953692500   10.0463340640
1      5.2989900630    0.0000000000    0.0000000000      5.2989900630    9.1953692500    0.0000000000
1      5.2989900630    0.0000000000    0.0000000000      3.4863062430    0.0000000000   10.0463340640
1      3.4863062430    0.0000000000   10.0463340640      3.4863062430    9.1953692500   10.0463340640
1      5.2989900630    9.1953692500    0.0000000000      3.4863062430    9.1953692500   10.0463340640
