 INFO
nunit      1    1    1
unit   cell
celltype   primcell
shape   parapipedal
 END_INFO
 DIM-GROUP
           3           1
 PRIMVEC
    5.2989900630    0.0000000000    0.0000000000
    0.0000000000    9.1953692500    0.0000000000
   -1.8126838200    0.0000000000   10.0463340640
 CONVVEC
    5.2989900630    0.0000000000    0.0000000000
    0.0000000000    9.1953692500    0.0000000000
   -1.8126838200    0.0000000000   10.0463340640
 PRIMCOORD
          44           1
 19      0.0000000000     4.5323744760     0.0000000000     0.0000000000     0.0002172700     0.0000000000
 19      2.6494950310     0.0419930320     0.0000000000     0.0000000000    -0.0003851600     0.0000000000
 12     -0.9063419100     3.0325609360     5.0231670320     0.0000000000    -0.0003255600     0.0000000000
 12     -0.9063419100     6.1301603520     5.0231670320     0.0000000000     0.0003440100     0.0000000000
 12      1.7431531220     4.5344743050     5.0231670320     0.0000000000     0.0001755200     0.0000000000
 12      1.7431531220     7.6948759980     5.0231670320     0.0000000000     0.0000334800     0.0000000000
 12      1.7431531220     1.5685990840     5.0231670320     0.0000000000     0.0001822800     0.0000000000
 14      0.0263582750     1.5062160740     2.2419219400    -0.0000450400    -0.0000952300     0.0000878600
 14      3.4599478400     1.5062160740     7.8044124260     0.0000450400    -0.0000952300    -0.0000878600
 14      3.5724827970     7.6836547900     7.7460126360     0.0001948100    -0.0001706200    -0.0001059000
 14     -0.0861765540     7.6836547900     2.3003214290    -0.0001948100    -0.0001706200     0.0001059000
 14      2.5640587300     6.1311883790     2.2837293980    -0.0002119900    -0.0000177600    -0.0000523100
 14      0.9222475410     6.1311883790     7.7626045160     0.0002119900    -0.0000177600     0.0000523100
 13      0.8032912300     3.0446076740     7.7862910560     0.0000598900     0.0001977100     0.0001967800
 13      2.6830150130     3.0446076740     2.2600430080    -0.0000598900     0.0001977100    -0.0001967800
  8     -0.0353323730     1.4675385960     3.8795207150     0.0003161500     0.0002421800     0.0002001800
  8      3.5216384040     1.4675385960     6.1668136410    -0.0003161500     0.0002421800    -0.0002001800
  8      3.5365506400     7.6896094270     6.1230007230    -0.0002226900    -0.0002565800    -0.0003618400
  8     -0.0502443960     7.6896094270     3.9233333420     0.0002226900    -0.0002565800     0.0003618400
  8      2.6019989260     6.1584951340     3.9072439200    -0.0000071000     0.0002863000     0.0001872800
  8      0.8843073180     6.1584951340     6.1390901450     0.0000071000     0.0002863000    -0.0001872800
  8      0.8242566960     3.0582667960     6.0592886820     0.0001011500    -0.0004320700     0.0000228900
  8      2.6620495470     3.0582667960     3.9870453830    -0.0001011500    -0.0004320700    -0.0000228900
  8      1.5076767860     1.8606990860     1.6724642030    -0.0001344700     0.0001252100    -0.0000039300
  8      1.9786295110     1.8606990860     8.3738695600     0.0001344700     0.0001252100     0.0000039300
  8      4.9484828050     9.1719034330     1.6667246170    -0.0001850900    -0.0001272400    -0.0001851500
  8     -1.4621765350     9.1719034330     8.3796092970     0.0001850900    -0.0001272400     0.0001851500
  8      2.1327301370     7.1274308020     8.3390142250     0.0002989000    -0.0002034200     0.0000191700
  8      1.3535761060     7.1274308020     1.7073198390    -0.0002989000    -0.0002034200    -0.0000191700
  8      4.0021390320     6.7362992880     1.6926847610    -0.0003440300     0.0000965200    -0.0002035400
  8     -0.5158327890     6.7362992880     8.3536493040     0.0003440300     0.0000965200     0.0002035400
  8      2.3262479550     4.6704205140     1.6328470440    -0.0002875600     0.0000645100    -0.0008216100
  8      1.1600581020     4.6704205140     8.4134871710     0.0002875600     0.0000645100     0.0008216100
  8     -0.7619803930     2.5467906720     8.4368710070    -0.0000525600     0.0001330400     0.0000182700
  8      4.2482867160     2.5467906720     1.6094630570     0.0000525600     0.0001330400    -0.0000182700
  8     -0.0286953930     4.6352695780     3.9580186980    -0.0000636800     0.0000345100    -0.0000936900
  8      3.5150017160     4.6352695780     6.0883153670     0.0000636800     0.0000345100     0.0000936900
  8      2.6655587670     9.1946775070     4.0123523590    -0.0001151500     0.0001126900    -0.0001467800
  8      0.8207475310     9.1946775070     6.0339814050     0.0001151500     0.0001126900     0.0001467800
  1     -0.0211334840     4.5505617590     2.9963840900    -0.0000776200    -0.0001906500     0.0001621500
  1      3.5074398860     4.5505617590     7.0499499740     0.0000776200    -0.0001906500    -0.0001621500
  1      2.7480034280     0.1431697930     3.0582124950    -0.0000827600    -0.0001767200     0.0003377300
  1      0.7383028160     0.1431697930     6.9881215690     0.0000827600    -0.0001767200    -0.0003377300
 26     -0.9063419100     0.0094412320     5.0231670320     0.0000000000     0.0005133800     0.0000000000
 CONVCOORD
          44           1
 19      0.0000000000     4.5323744760     0.0000000000
 19      2.6494950310     0.0419930320     0.0000000000
 12     -0.9063419100     3.0325609360     5.0231670320
 12     -0.9063419100     6.1301603520     5.0231670320
 12      1.7431531220     4.5344743050     5.0231670320
 12      1.7431531220     7.6948759980     5.0231670320
 12      1.7431531220     1.5685990840     5.0231670320
 14      0.0263582750     1.5062160740     2.2419219400
 14      3.4599478400     1.5062160740     7.8044124260
 14      3.5724827970     7.6836547900     7.7460126360
 14     -0.0861765540     7.6836547900     2.3003214290
 14      2.5640587300     6.1311883790     2.2837293980
 14      0.9222475410     6.1311883790     7.7626045160
 13      0.8032912300     3.0446076740     7.7862910560
 13      2.6830150130     3.0446076740     2.2600430080
  8     -0.0353323730     1.4675385960     3.8795207150
  8      3.5216384040     1.4675385960     6.1668136410
  8      3.5365506400     7.6896094270     6.1230007230
  8     -0.0502443960     7.6896094270     3.9233333420
  8      2.6019989260     6.1584951340     3.9072439200
  8      0.8843073180     6.1584951340     6.1390901450
  8      0.8242566960     3.0582667960     6.0592886820
  8      2.6620495470     3.0582667960     3.9870453830
  8      1.5076767860     1.8606990860     1.6724642030
  8      1.9786295110     1.8606990860     8.3738695600
  8      4.9484828050     9.1719034330     1.6667246170
  8     -1.4621765350     9.1719034330     8.3796092970
  8      2.1327301370     7.1274308020     8.3390142250
  8      1.3535761060     7.1274308020     1.7073198390
  8      4.0021390320     6.7362992880     1.6926847610
  8     -0.5158327890     6.7362992880     8.3536493040
  8      2.3262479550     4.6704205140     1.6328470440
  8      1.1600581020     4.6704205140     8.4134871710
  8     -0.7619803930     2.5467906720     8.4368710070
  8      4.2482867160     2.5467906720     1.6094630570
  8     -0.0286953930     4.6352695780     3.9580186980
  8      3.5150017160     4.6352695780     6.0883153670
  8      2.6655587670     9.1946775070     4.0123523590
  8      0.8207475310     9.1946775070     6.0339814050
  1     -0.0211334840     4.5505617590     2.9963840900
  1      3.5074398860     4.5505617590     7.0499499740
  1      2.7480034280     0.1431697930     3.0582124950
  1      0.7383028160     0.1431697930     6.9881215690
 26     -0.9063419100     0.0094412320     5.0231670320
 RECIP-PRIMVEC
    0.1887152057   -0.0000000000    0.0340503310

    0.0000000000    0.1087503909   -0.0000000000

    0.0000000000    0.0000000000    0.0995387963

 RECIP-CONVVEC
    0.1887152057   -0.0000000000    0.0340503310

    0.0000000000    0.1087503909   -0.0000000000

    0.0000000000    0.0000000000    0.0995387963

 WIGNER-SEITZ-PRIMCELL
           4
 -0.2649495E+01  0.4597685E+01 -0.4708646E+01  -0.3278435E+00 -0.1009766E-15 -0.9447320E+00
 -0.8368112E+00  0.4597685E+01 -0.5337688E+01  -0.3278435E+00 -0.1009766E-15 -0.9447320E+00
 -0.8368112E+00 -0.4597685E+01 -0.5337688E+01  -0.3278435E+00 -0.1009766E-15 -0.9447320E+00
 -0.2649495E+01 -0.4597685E+01 -0.4708646E+01  -0.3278435E+00 -0.1009766E-15 -0.9447320E+00
           4
 -0.2649495E+01  0.4597685E+01 -0.4708646E+01  -0.1000000E+01  0.4829488E-16  0.4554862E-32
 -0.2649495E+01 -0.4597685E+01 -0.4708646E+01  -0.1000000E+01  0.4829488E-16  0.4554862E-32
 -0.2649495E+01 -0.4597685E+01  0.4708646E+01  -0.1000000E+01  0.4829488E-16  0.4554862E-32
 -0.2649495E+01  0.4597685E+01  0.4708646E+01  -0.1000000E+01  0.4829488E-16  0.4554862E-32
           6
  0.2649495E+01 -0.4597685E+01  0.4708646E+01  -0.0000000E+00 -0.1000000E+01  0.1065828E-14
  0.8368112E+00 -0.4597685E+01  0.5337688E+01  -0.0000000E+00 -0.1000000E+01  0.1065828E-14
 -0.2649495E+01 -0.4597685E+01  0.4708646E+01  -0.0000000E+00 -0.1000000E+01  0.1065828E-14
 -0.2649495E+01 -0.4597685E+01 -0.4708646E+01  -0.0000000E+00 -0.1000000E+01  0.1065828E-14
 -0.8368112E+00 -0.4597685E+01 -0.5337688E+01  -0.0000000E+00 -0.1000000E+01  0.1065828E-14
  0.2649495E+01 -0.4597685E+01 -0.4708646E+01  -0.0000000E+00 -0.1000000E+01  0.1065828E-14
           4
  0.2649495E+01 -0.4597685E+01 -0.4708646E+01   0.1775651E+00 -0.2181216E-15 -0.9841091E+00
 -0.8368112E+00 -0.4597685E+01 -0.5337688E+01   0.1775651E+00 -0.2181216E-15 -0.9841091E+00
 -0.8368112E+00  0.4597685E+01 -0.5337688E+01   0.1775651E+00 -0.2181216E-15 -0.9841091E+00
  0.2649495E+01  0.4597685E+01 -0.4708646E+01   0.1775651E+00 -0.2181216E-15 -0.9841091E+00
           4
 -0.2649495E+01  0.4597685E+01  0.4708646E+01  -0.1775651E+00 -0.0000000E+00  0.9841091E+00
 -0.2649495E+01 -0.4597685E+01  0.4708646E+01  -0.1775651E+00 -0.0000000E+00  0.9841091E+00
  0.8368112E+00 -0.4597685E+01  0.5337688E+01  -0.1775651E+00 -0.0000000E+00  0.9841091E+00
  0.8368112E+00  0.4597685E+01  0.5337688E+01  -0.1775651E+00 -0.0000000E+00  0.9841091E+00
           6
  0.2649495E+01  0.4597685E+01 -0.4708646E+01   0.0000000E+00  0.1000000E+01  0.1065828E-14
 -0.8368112E+00  0.4597685E+01 -0.5337688E+01   0.0000000E+00  0.1000000E+01  0.1065828E-14
 -0.2649495E+01  0.4597685E+01 -0.4708646E+01   0.0000000E+00  0.1000000E+01  0.1065828E-14
 -0.2649495E+01  0.4597685E+01  0.4708646E+01   0.0000000E+00  0.1000000E+01  0.1065828E-14
  0.8368112E+00  0.4597685E+01  0.5337688E+01   0.0000000E+00  0.1000000E+01  0.1065828E-14
  0.2649495E+01  0.4597685E+01  0.4708646E+01   0.0000000E+00  0.1000000E+01  0.1065828E-14
           4
  0.2649495E+01  0.4597685E+01  0.4708646E+01   0.1000000E+01 -0.4829488E-16  0.0000000E+00
  0.2649495E+01 -0.4597685E+01  0.4708646E+01   0.1000000E+01 -0.4829488E-16  0.0000000E+00
  0.2649495E+01 -0.4597685E+01 -0.4708646E+01   0.1000000E+01 -0.4829488E-16  0.0000000E+00
  0.2649495E+01  0.4597685E+01 -0.4708646E+01   0.1000000E+01 -0.4829488E-16  0.0000000E+00
           4
  0.8368112E+00 -0.4597685E+01  0.5337688E+01   0.3278435E+00  0.3334111E-16  0.9447320E+00
  0.2649495E+01 -0.4597685E+01  0.4708646E+01   0.3278435E+00  0.3334111E-16  0.9447320E+00
  0.2649495E+01  0.4597685E+01  0.4708646E+01   0.3278435E+00  0.3334111E-16  0.9447320E+00
  0.8368112E+00  0.4597685E+01  0.5337688E+01   0.3278435E+00  0.3334111E-16  0.9447320E+00
 WIGNER-SEITZ-PRIMCELL_END
 WIGNER-SEITZ-CONVCELL
           4
 -0.2649495E+01  0.4597685E+01 -0.4708646E+01  -0.3278435E+00 -0.1009766E-15 -0.9447320E+00
 -0.8368112E+00  0.4597685E+01 -0.5337688E+01  -0.3278435E+00 -0.1009766E-15 -0.9447320E+00
 -0.8368112E+00 -0.4597685E+01 -0.5337688E+01  -0.3278435E+00 -0.1009766E-15 -0.9447320E+00
 -0.2649495E+01 -0.4597685E+01 -0.4708646E+01  -0.3278435E+00 -0.1009766E-15 -0.9447320E+00
           4
 -0.2649495E+01  0.4597685E+01 -0.4708646E+01  -0.1000000E+01  0.4829488E-16  0.4554862E-32
 -0.2649495E+01 -0.4597685E+01 -0.4708646E+01  -0.1000000E+01  0.4829488E-16  0.4554862E-32
 -0.2649495E+01 -0.4597685E+01  0.4708646E+01  -0.1000000E+01  0.4829488E-16  0.4554862E-32
 -0.2649495E+01  0.4597685E+01  0.4708646E+01  -0.1000000E+01  0.4829488E-16  0.4554862E-32
           6
  0.2649495E+01 -0.4597685E+01  0.4708646E+01  -0.0000000E+00 -0.1000000E+01  0.1065828E-14
  0.8368112E+00 -0.4597685E+01  0.5337688E+01  -0.0000000E+00 -0.1000000E+01  0.1065828E-14
 -0.2649495E+01 -0.4597685E+01  0.4708646E+01  -0.0000000E+00 -0.1000000E+01  0.1065828E-14
 -0.2649495E+01 -0.4597685E+01 -0.4708646E+01  -0.0000000E+00 -0.1000000E+01  0.1065828E-14
 -0.8368112E+00 -0.4597685E+01 -0.5337688E+01  -0.0000000E+00 -0.1000000E+01  0.1065828E-14
  0.2649495E+01 -0.4597685E+01 -0.4708646E+01  -0.0000000E+00 -0.1000000E+01  0.1065828E-14
           4
  0.2649495E+01 -0.4597685E+01 -0.4708646E+01   0.1775651E+00 -0.2181216E-15 -0.9841091E+00
 -0.8368112E+00 -0.4597685E+01 -0.5337688E+01   0.1775651E+00 -0.2181216E-15 -0.9841091E+00
 -0.8368112E+00  0.4597685E+01 -0.5337688E+01   0.1775651E+00 -0.2181216E-15 -0.9841091E+00
  0.2649495E+01  0.4597685E+01 -0.4708646E+01   0.1775651E+00 -0.2181216E-15 -0.9841091E+00
           4
 -0.2649495E+01  0.4597685E+01  0.4708646E+01  -0.1775651E+00 -0.0000000E+00  0.9841091E+00
 -0.2649495E+01 -0.4597685E+01  0.4708646E+01  -0.1775651E+00 -0.0000000E+00  0.9841091E+00
  0.8368112E+00 -0.4597685E+01  0.5337688E+01  -0.1775651E+00 -0.0000000E+00  0.9841091E+00
  0.8368112E+00  0.4597685E+01  0.5337688E+01  -0.1775651E+00 -0.0000000E+00  0.9841091E+00
           6
  0.2649495E+01  0.4597685E+01 -0.4708646E+01   0.0000000E+00  0.1000000E+01  0.1065828E-14
 -0.8368112E+00  0.4597685E+01 -0.5337688E+01   0.0000000E+00  0.1000000E+01  0.1065828E-14
 -0.2649495E+01  0.4597685E+01 -0.4708646E+01   0.0000000E+00  0.1000000E+01  0.1065828E-14
 -0.2649495E+01  0.4597685E+01  0.4708646E+01   0.0000000E+00  0.1000000E+01  0.1065828E-14
  0.8368112E+00  0.4597685E+01  0.5337688E+01   0.0000000E+00  0.1000000E+01  0.1065828E-14
  0.2649495E+01  0.4597685E+01  0.4708646E+01   0.0000000E+00  0.1000000E+01  0.1065828E-14
           4
  0.2649495E+01  0.4597685E+01  0.4708646E+01   0.1000000E+01 -0.4829488E-16  0.0000000E+00
  0.2649495E+01 -0.4597685E+01  0.4708646E+01   0.1000000E+01 -0.4829488E-16  0.0000000E+00
  0.2649495E+01 -0.4597685E+01 -0.4708646E+01   0.1000000E+01 -0.4829488E-16  0.0000000E+00
  0.2649495E+01  0.4597685E+01 -0.4708646E+01   0.1000000E+01 -0.4829488E-16  0.0000000E+00
           4
  0.8368112E+00 -0.4597685E+01  0.5337688E+01   0.3278435E+00  0.3334111E-16  0.9447320E+00
  0.2649495E+01 -0.4597685E+01  0.4708646E+01   0.3278435E+00  0.3334111E-16  0.9447320E+00
  0.2649495E+01  0.4597685E+01  0.4708646E+01   0.3278435E+00  0.3334111E-16  0.9447320E+00
  0.8368112E+00  0.4597685E+01  0.5337688E+01   0.3278435E+00  0.3334111E-16  0.9447320E+00
 WIGNER-SEITZ-CONVCELL_END
 BRILLOUIN-ZONE-PRIMCELL
           4
  0.1002657E+00  0.5437520E-01 -0.1571907E-01   0.9447320E+00  0.5532186E-16 -0.3278435E+00
  0.1002657E+00 -0.5437520E-01 -0.1571907E-01   0.9447320E+00  0.5532186E-16 -0.3278435E+00
  0.8844948E-01 -0.5437520E-01 -0.4976940E-01   0.9447320E+00  0.5532186E-16 -0.3278435E+00
  0.8844948E-01  0.5437520E-01 -0.4976940E-01   0.9447320E+00  0.5532186E-16 -0.3278435E+00
           4
 -0.8844948E-01  0.5437520E-01 -0.4976940E-01   0.0000000E+00 -0.5426985E-16 -0.1000000E+01
  0.8844948E-01  0.5437520E-01 -0.4976940E-01   0.0000000E+00 -0.5426985E-16 -0.1000000E+01
  0.8844948E-01 -0.5437520E-01 -0.4976940E-01   0.0000000E+00 -0.5426985E-16 -0.1000000E+01
 -0.8844948E-01 -0.5437520E-01 -0.4976940E-01   0.0000000E+00 -0.5426985E-16 -0.1000000E+01
           6
  0.8844948E-01 -0.5437520E-01  0.4976940E-01   0.0000000E+00 -0.1000000E+01  0.2879941E-15
 -0.8844948E-01 -0.5437520E-01  0.4976940E-01   0.0000000E+00 -0.1000000E+01  0.2879941E-15
 -0.1002657E+00 -0.5437520E-01  0.1571907E-01   0.0000000E+00 -0.1000000E+01  0.2879941E-15
 -0.8844948E-01 -0.5437520E-01 -0.4976940E-01   0.0000000E+00 -0.1000000E+01  0.2879941E-15
  0.8844948E-01 -0.5437520E-01 -0.4976940E-01   0.0000000E+00 -0.1000000E+01  0.2879941E-15
  0.1002657E+00 -0.5437520E-01 -0.1571907E-01   0.0000000E+00 -0.1000000E+01  0.2879941E-15
           4
  0.8844948E-01  0.5437520E-01  0.4976940E-01   0.9841091E+00 -0.3370857E-15  0.1775651E+00
  0.8844948E-01 -0.5437520E-01  0.4976940E-01   0.9841091E+00 -0.3370857E-15  0.1775651E+00
  0.1002657E+00 -0.5437520E-01 -0.1571907E-01   0.9841091E+00 -0.3370857E-15  0.1775651E+00
  0.1002657E+00  0.5437520E-01 -0.1571907E-01   0.9841091E+00 -0.3370857E-15  0.1775651E+00
           4
 -0.8844948E-01  0.5437520E-01 -0.4976940E-01  -0.9841091E+00 -0.1498159E-15 -0.1775651E+00
 -0.8844948E-01 -0.5437520E-01 -0.4976940E-01  -0.9841091E+00 -0.1498159E-15 -0.1775651E+00
 -0.1002657E+00 -0.5437520E-01  0.1571907E-01  -0.9841091E+00 -0.1498159E-15 -0.1775651E+00
 -0.1002657E+00  0.5437520E-01  0.1571907E-01  -0.9841091E+00 -0.1498159E-15 -0.1775651E+00
           6
  0.1002657E+00  0.5437520E-01 -0.1571907E-01  -0.0000000E+00  0.1000000E+01  0.2879941E-15
  0.8844948E-01  0.5437520E-01 -0.4976940E-01  -0.0000000E+00  0.1000000E+01  0.2879941E-15
 -0.8844948E-01  0.5437520E-01 -0.4976940E-01  -0.0000000E+00  0.1000000E+01  0.2879941E-15
 -0.1002657E+00  0.5437520E-01  0.1571907E-01  -0.0000000E+00  0.1000000E+01  0.2879941E-15
 -0.8844948E-01  0.5437520E-01  0.4976940E-01  -0.0000000E+00  0.1000000E+01  0.2879941E-15
  0.8844948E-01  0.5437520E-01  0.4976940E-01  -0.0000000E+00  0.1000000E+01  0.2879941E-15
           4
  0.8844948E-01 -0.5437520E-01  0.4976940E-01  -0.0000000E+00 -0.0000000E+00  0.1000000E+01
  0.8844948E-01  0.5437520E-01  0.4976940E-01  -0.0000000E+00 -0.0000000E+00  0.1000000E+01
 -0.8844948E-01  0.5437520E-01  0.4976940E-01  -0.0000000E+00 -0.0000000E+00  0.1000000E+01
 -0.8844948E-01 -0.5437520E-01  0.4976940E-01  -0.0000000E+00 -0.0000000E+00  0.1000000E+01
           4
 -0.1002657E+00  0.5437520E-01  0.1571907E-01  -0.9447320E+00 -0.1383046E-15  0.3278435E+00
 -0.1002657E+00 -0.5437520E-01  0.1571907E-01  -0.9447320E+00 -0.1383046E-15  0.3278435E+00
 -0.8844948E-01 -0.5437520E-01  0.4976940E-01  -0.9447320E+00 -0.1383046E-15  0.3278435E+00
 -0.8844948E-01  0.5437520E-01  0.4976940E-01  -0.9447320E+00 -0.1383046E-15  0.3278435E+00
 BRILLOUIN-ZONE-PRIMCELL_END
 BRILLOUIN-ZONE-CONVCELL
           4
  0.1002657E+00  0.5437520E-01 -0.1571907E-01   0.9447320E+00  0.5532186E-16 -0.3278435E+00
  0.1002657E+00 -0.5437520E-01 -0.1571907E-01   0.9447320E+00  0.5532186E-16 -0.3278435E+00
  0.8844948E-01 -0.5437520E-01 -0.4976940E-01   0.9447320E+00  0.5532186E-16 -0.3278435E+00
  0.8844948E-01  0.5437520E-01 -0.4976940E-01   0.9447320E+00  0.5532186E-16 -0.3278435E+00
           4
 -0.8844948E-01  0.5437520E-01 -0.4976940E-01   0.0000000E+00 -0.5426985E-16 -0.1000000E+01
  0.8844948E-01  0.5437520E-01 -0.4976940E-01   0.0000000E+00 -0.5426985E-16 -0.1000000E+01
  0.8844948E-01 -0.5437520E-01 -0.4976940E-01   0.0000000E+00 -0.5426985E-16 -0.1000000E+01
 -0.8844948E-01 -0.5437520E-01 -0.4976940E-01   0.0000000E+00 -0.5426985E-16 -0.1000000E+01
           6
  0.8844948E-01 -0.5437520E-01  0.4976940E-01   0.0000000E+00 -0.1000000E+01  0.2879941E-15
 -0.8844948E-01 -0.5437520E-01  0.4976940E-01   0.0000000E+00 -0.1000000E+01  0.2879941E-15
 -0.1002657E+00 -0.5437520E-01  0.1571907E-01   0.0000000E+00 -0.1000000E+01  0.2879941E-15
 -0.8844948E-01 -0.5437520E-01 -0.4976940E-01   0.0000000E+00 -0.1000000E+01  0.2879941E-15
  0.8844948E-01 -0.5437520E-01 -0.4976940E-01   0.0000000E+00 -0.1000000E+01  0.2879941E-15
  0.1002657E+00 -0.5437520E-01 -0.1571907E-01   0.0000000E+00 -0.1000000E+01  0.2879941E-15
           4
  0.8844948E-01  0.5437520E-01  0.4976940E-01   0.9841091E+00 -0.3370857E-15  0.1775651E+00
  0.8844948E-01 -0.5437520E-01  0.4976940E-01   0.9841091E+00 -0.3370857E-15  0.1775651E+00
  0.1002657E+00 -0.5437520E-01 -0.1571907E-01   0.9841091E+00 -0.3370857E-15  0.1775651E+00
  0.1002657E+00  0.5437520E-01 -0.1571907E-01   0.9841091E+00 -0.3370857E-15  0.1775651E+00
           4
 -0.8844948E-01  0.5437520E-01 -0.4976940E-01  -0.9841091E+00 -0.1498159E-15 -0.1775651E+00
 -0.8844948E-01 -0.5437520E-01 -0.4976940E-01  -0.9841091E+00 -0.1498159E-15 -0.1775651E+00
 -0.1002657E+00 -0.5437520E-01  0.1571907E-01  -0.9841091E+00 -0.1498159E-15 -0.1775651E+00
 -0.1002657E+00  0.5437520E-01  0.1571907E-01  -0.9841091E+00 -0.1498159E-15 -0.1775651E+00
           6
  0.1002657E+00  0.5437520E-01 -0.1571907E-01  -0.0000000E+00  0.1000000E+01  0.2879941E-15
  0.8844948E-01  0.5437520E-01 -0.4976940E-01  -0.0000000E+00  0.1000000E+01  0.2879941E-15
 -0.8844948E-01  0.5437520E-01 -0.4976940E-01  -0.0000000E+00  0.1000000E+01  0.2879941E-15
 -0.1002657E+00  0.5437520E-01  0.1571907E-01  -0.0000000E+00  0.1000000E+01  0.2879941E-15
 -0.8844948E-01  0.5437520E-01  0.4976940E-01  -0.0000000E+00  0.1000000E+01  0.2879941E-15
  0.8844948E-01  0.5437520E-01  0.4976940E-01  -0.0000000E+00  0.1000000E+01  0.2879941E-15
           4
  0.8844948E-01 -0.5437520E-01  0.4976940E-01  -0.0000000E+00 -0.0000000E+00  0.1000000E+01
  0.8844948E-01  0.5437520E-01  0.4976940E-01  -0.0000000E+00 -0.0000000E+00  0.1000000E+01
 -0.8844948E-01  0.5437520E-01  0.4976940E-01  -0.0000000E+00 -0.0000000E+00  0.1000000E+01
 -0.8844948E-01 -0.5437520E-01  0.4976940E-01  -0.0000000E+00 -0.0000000E+00  0.1000000E+01
           4
 -0.1002657E+00  0.5437520E-01  0.1571907E-01  -0.9447320E+00 -0.1383046E-15  0.3278435E+00
 -0.1002657E+00 -0.5437520E-01  0.1571907E-01  -0.9447320E+00 -0.1383046E-15  0.3278435E+00
 -0.8844948E-01 -0.5437520E-01  0.4976940E-01  -0.9447320E+00 -0.1383046E-15  0.3278435E+00
 -0.8844948E-01  0.5437520E-01  0.4976940E-01  -0.9447320E+00 -0.1383046E-15  0.3278435E+00
 BRILLOUIN-ZONE-CONVCELL_END
 ATOMS
   19    0.0000000000    4.5323744760    0.0000000000    0.0000000000    0.0002172700    0.0000000000
   19    2.6494950310    0.0419930320    0.0000000000    0.0000000000   -0.0003851600    0.0000000000
   12   -0.9063419100    3.0325609360    5.0231670320    0.0000000000   -0.0003255600    0.0000000000
   12   -0.9063419100    6.1301603520    5.0231670320    0.0000000000    0.0003440100    0.0000000000
   12    1.7431531220    4.5344743050    5.0231670320    0.0000000000    0.0001755200    0.0000000000
   12    1.7431531220    7.6948759980    5.0231670320    0.0000000000    0.0000334800    0.0000000000
   12    1.7431531220    1.5685990840    5.0231670320    0.0000000000    0.0001822800    0.0000000000
   14    0.0263582750    1.5062160740    2.2419219400   -0.0000450400   -0.0000952300    0.0000878600
   14    3.4599478400    1.5062160740    7.8044124260    0.0000450400   -0.0000952300   -0.0000878600
   14    3.5724827970    7.6836547900    7.7460126360    0.0001948100   -0.0001706200   -0.0001059000
   14   -0.0861765540    7.6836547900    2.3003214290   -0.0001948100   -0.0001706200    0.0001059000
   14    2.5640587300    6.1311883790    2.2837293980   -0.0002119900   -0.0000177600   -0.0000523100
   14    0.9222475410    6.1311883790    7.7626045160    0.0002119900   -0.0000177600    0.0000523100
   13    0.8032912300    3.0446076740    7.7862910560    0.0000598900    0.0001977100    0.0001967800
   13    2.6830150130    3.0446076740    2.2600430080   -0.0000598900    0.0001977100   -0.0001967800
    8   -0.0353323730    1.4675385960    3.8795207150    0.0003161500    0.0002421800    0.0002001800
    8    3.5216384040    1.4675385960    6.1668136410   -0.0003161500    0.0002421800   -0.0002001800
    8    3.5365506400    7.6896094270    6.1230007230   -0.0002226900   -0.0002565800   -0.0003618400
    8   -0.0502443960    7.6896094270    3.9233333420    0.0002226900   -0.0002565800    0.0003618400
    8    2.6019989260    6.1584951340    3.9072439200   -0.0000071000    0.0002863000    0.0001872800
    8    0.8843073180    6.1584951340    6.1390901450    0.0000071000    0.0002863000   -0.0001872800
    8    0.8242566960    3.0582667960    6.0592886820    0.0001011500   -0.0004320700    0.0000228900
    8    2.6620495470    3.0582667960    3.9870453830   -0.0001011500   -0.0004320700   -0.0000228900
    8    1.5076767860    1.8606990860    1.6724642030   -0.0001344700    0.0001252100   -0.0000039300
    8    1.9786295110    1.8606990860    8.3738695600    0.0001344700    0.0001252100    0.0000039300
    8    4.9484828050    9.1719034330    1.6667246170   -0.0001850900   -0.0001272400   -0.0001851500
    8   -1.4621765350    9.1719034330    8.3796092970    0.0001850900   -0.0001272400    0.0001851500
    8    2.1327301370    7.1274308020    8.3390142250    0.0002989000   -0.0002034200    0.0000191700
    8    1.3535761060    7.1274308020    1.7073198390   -0.0002989000   -0.0002034200   -0.0000191700
    8    4.0021390320    6.7362992880    1.6926847610   -0.0003440300    0.0000965200   -0.0002035400
    8   -0.5158327890    6.7362992880    8.3536493040    0.0003440300    0.0000965200    0.0002035400
    8    2.3262479550    4.6704205140    1.6328470440   -0.0002875600    0.0000645100   -0.0008216100
    8    1.1600581020    4.6704205140    8.4134871710    0.0002875600    0.0000645100    0.0008216100
    8   -0.7619803930    2.5467906720    8.4368710070   -0.0000525600    0.0001330400    0.0000182700
    8    4.2482867160    2.5467906720    1.6094630570    0.0000525600    0.0001330400   -0.0000182700
    8   -0.0286953930    4.6352695780    3.9580186980   -0.0000636800    0.0000345100   -0.0000936900
    8    3.5150017160    4.6352695780    6.0883153670    0.0000636800    0.0000345100    0.0000936900
    8    2.6655587670    9.1946775070    4.0123523590   -0.0001151500    0.0001126900   -0.0001467800
    8    0.8207475310    9.1946775070    6.0339814050    0.0001151500    0.0001126900    0.0001467800
    1   -0.0211334840    4.5505617590    2.9963840900   -0.0000776200   -0.0001906500    0.0001621500
    1    3.5074398860    4.5505617590    7.0499499740    0.0000776200   -0.0001906500   -0.0001621500
    1    2.7480034280    0.1431697930    3.0582124950   -0.0000827600   -0.0001767200    0.0003377300
    1    0.7383028160    0.1431697930    6.9881215690    0.0000827600   -0.0001767200   -0.0003377300
   26   -0.9063419100    0.0094412320    5.0231670320    0.0000000000    0.0005133800    0.0000000000
   19   -1.8126838200    4.5323744760   10.0463340640    0.0000000000    0.0002172700    0.0000000000
   19    0.8368112110    0.0419930320   10.0463340640    0.0000000000   -0.0003851600    0.0000000000
   19    5.2989900630    4.5323744760    0.0000000000    0.0000000000    0.0002172700    0.0000000000
   12    4.3926481530    3.0325609360    5.0231670320    0.0000000000   -0.0003255600    0.0000000000
   12    4.3926481530    6.1301603520    5.0231670320    0.0000000000    0.0003440100    0.0000000000
   26    4.3926481530    0.0094412320    5.0231670320    0.0000000000    0.0005133800    0.0000000000
   19    3.4863062430    4.5323744760   10.0463340640    0.0000000000    0.0002172700    0.0000000000
 FRAMES
1      0.0000000000    0.0000000000    0.0000000000      5.2989900630    0.0000000000    0.0000000000
1      0.0000000000    0.0000000000    0.0000000000      0.0000000000    9.1953692500    0.0000000000
1      0.0000000000    0.0000000000    0.0000000000     -1.8126838200    0.0000000000   10.0463340640
1     -1.8126838200    0.0000000000   10.0463340640      3.4863062430    0.0000000000   10.0463340640
1     -1.8126838200    0.0000000000   10.0463340640     -1.8126838200    9.1953692500   10.0463340640
1      0.0000000000    9.1953692500    0.0000000000      5.2989900630    9.1953692500    0.0000000000
1      0.0000000000    9.1953692500    0.0000000000     -1.8126838200    9.1953692500   10.0463340640
1     -1.8126838200    9.1953692500   10.0463340640      3.4863062430    9.1953692500   10.0463340640
1      5.2989900630    0.0000000000    0.0000000000      5.2989900630    9.1953692500    0.0000000000
1      5.2989900630    0.0000000000    0.0000000000      3.4863062430    0.0000000000   10.0463340640
1      3.4863062430    0.0000000000   10.0463340640      3.4863062430    9.1953692500   10.0463340640
1      5.2989900630    9.1953692500    0.0000000000      3.4863062430    9.1953692500   10.0463340640
