 INFO
nunit      1    1    1
unit   cell
celltype   primcell
shape   parapipedal
 END_INFO
 DIM-GROUP
           3           1
 PRIMVEC
    5.3224433930    0.0000000000    0.0000000000
    0.0000000000    9.2179482470    0.0000000000
   -1.8400054130    0.0000000000   10.1869003740
 CONVVEC
    5.3224433930    0.0000000000    0.0000000000
    0.0000000000    9.2179482470    0.0000000000
   -1.8400054130    0.0000000000   10.1869003740
 PRIMCOORD
          43           1
 19      0.0000000000     4.6538440240     0.0000000000     0.0000000000    -0.0005538600     0.0000000000
 19      2.6612225630     9.2259375720     0.0000000000     0.0000000000     0.0002554200     0.0000000000
 12     -0.9200022010     6.2458100960     5.0934501140     0.0000000000     0.0002992200     0.0000000000
 12      1.7412203610     4.6356931770     5.0934501140     0.0000000000    -0.0000515700     0.0000000000
 12      1.7412203610     7.7875643490     5.0934501140     0.0000000000    -0.0003863600     0.0000000000
 12      1.7412203610     1.3989697920     5.0934501140     0.0000000000     0.0007412600     0.0000000000
 14      0.0495053240     1.5559758160     2.2290228080    -0.0001900300     0.0002335600     0.0001219000
 14      3.4329353250     1.5559758160     7.9578780300     0.0001900300     0.0002335600    -0.0001219000
 14      3.5187717810     7.6905986180     7.8216592800    -0.0000315100    -0.0000422700    -0.0000932400
 14     -0.0363311750     7.6905986180     2.3652409470     0.0000315100    -0.0000422700     0.0000932400
 14      2.5956205960     6.1913750530     2.3225534380    -0.0000579700    -0.0003260600     0.0004095700
 14      0.8868201260     6.1913750530     7.8643467890     0.0000579700    -0.0003260600    -0.0004095700
 13      0.7712462410     3.0601334410     7.9248550410     0.0002196200    -0.0000952400    -0.0002878600
 13      2.7111946410     3.0601334410     2.2620451850    -0.0002196200    -0.0000952400     0.0002878600
  8     -0.0197605710     1.7162231150     3.8897647520     0.0006214000    -0.0003392200     0.0003077300
  8      3.5022011580     1.7162231150     6.2971357800    -0.0006214000    -0.0003392200    -0.0003077300
  8      3.4706343160     7.5813445830     6.2344434440     0.0000550600     0.0002122400    -0.0002246700
  8      0.0118064310     7.5813445830     3.9524570890    -0.0000550600     0.0002122400     0.0002246700
  8      2.6129965900     6.1491974860     3.9545803950    -0.0001192000     0.0001648400     0.0004054700
  8      0.8694442390     6.1491974860     6.2323201270     0.0001192000     0.0001648400    -0.0004054700
  8      0.7181259640     3.0569043040     6.1293187960    -0.0000745300    -0.0001287000    -0.0003538100
  8      2.7643146550     3.0569043040     4.0575811250     0.0000745300    -0.0001287000     0.0003538100
  8      1.4849852120     1.9934447610     1.6453259020    -0.0004062600    -0.0000074300     0.0001676700
  8      1.9974557510     1.9934447610     8.5415738770     0.0004062600    -0.0000074300    -0.0001676700
  8     -0.2512665090    -0.0008931210     1.7802813940    -0.0000073100    -0.0002219600    -0.0003147000
  8      3.7337073150    -0.0008931210     8.4066183750     0.0000073100    -0.0002219600     0.0003147000
  8      2.1291177380     7.0928771530     8.5042662620    -0.0000236800     0.0000386900     0.0000779600
  8      1.3533229580     7.0928771530     1.6826341180     0.0000236800     0.0000386900    -0.0000779600
  8      4.0208705690     6.8118433800     1.7300152830     0.0000831500    -0.0003379300    -0.0002307300
  8     -0.5384299460     6.8118433800     8.4568846390    -0.0000831500    -0.0003379300     0.0002307300
  8      2.4017742690     4.6991434810     1.7089824260    -0.0002205300     0.0000732100    -0.0006064300
  8      1.0806663000     4.6991434810     8.4779178020     0.0002205300     0.0000732100     0.0006064300
  8     -0.7685042510     2.5499279600     8.5768402370     0.0002986800     0.0000565700     0.0005984600
  8      4.2509449190     2.5499279600     1.6100602960    -0.0002986800     0.0000565700    -0.0005984600
  8     -0.0759298990     4.5461616970     4.0943692810     0.0002753500     0.0001034900    -0.0007436000
  8      3.5583707150     4.5461616970     6.0925306410    -0.0002753500     0.0001034900     0.0007436000
  8      2.5231912040     0.0111028980     3.9094997840     0.0000741200    -0.0000391600     0.0000433500
  8      0.9592496780     0.0111028980     6.2774004430    -0.0000741200    -0.0000391600    -0.0000433500
  1     -0.1007098660     4.4833206380     3.1270302200    -0.0000805800     0.0002269500    -0.0004699100
  1      3.5831508040     4.4833206380     7.0598697010     0.0000805800     0.0002269500     0.0004699100
  1      3.4914073950     9.1607491830     3.9533093840    -0.0000149200     0.0001007900    -0.0001093300
  1     -0.0089668320     9.1607491830     6.2335908430     0.0000149200     0.0001007900     0.0001093300
 22     -0.9200022010     2.8942092360     5.0934501140     0.0000000000     0.0003511700     0.0000000000
 CONVCOORD
          43           1
 19      0.0000000000     4.6538440240     0.0000000000
 19      2.6612225630     0.0079893250     0.0000000000
 12     -0.9200022010     6.2458100960     5.0934501140
 12      1.7412203610     4.6356931770     5.0934501140
 12      1.7412203610     7.7875643490     5.0934501140
 12      1.7412203610     1.3989697920     5.0934501140
 14      0.0495053240     1.5559758160     2.2290228080
 14      3.4329353250     1.5559758160     7.9578780300
 14      3.5187717810     7.6905986180     7.8216592800
 14     -0.0363311750     7.6905986180     2.3652409470
 14      2.5956205960     6.1913750530     2.3225534380
 14      0.8868201260     6.1913750530     7.8643467890
 13      0.7712462410     3.0601334410     7.9248550410
 13      2.7111946410     3.0601334410     2.2620451850
  8     -0.0197605710     1.7162231150     3.8897647520
  8      3.5022011580     1.7162231150     6.2971357800
  8      3.4706343160     7.5813445830     6.2344434440
  8      0.0118064310     7.5813445830     3.9524570890
  8      2.6129965900     6.1491974860     3.9545803950
  8      0.8694442390     6.1491974860     6.2323201270
  8      0.7181259640     3.0569043040     6.1293187960
  8      2.7643146550     3.0569043040     4.0575811250
  8      1.4849852120     1.9934447610     1.6453259020
  8      1.9974557510     1.9934447610     8.5415738770
  8     -0.2512665090    -0.0008931210     1.7802813940
  8      3.7337073150    -0.0008931210     8.4066183750
  8      2.1291177380     7.0928771530     8.5042662620
  8      1.3533229580     7.0928771530     1.6826341180
  8      4.0208705690     6.8118433800     1.7300152830
  8     -0.5384299460     6.8118433800     8.4568846390
  8      2.4017742690     4.6991434810     1.7089824260
  8      1.0806663000     4.6991434810     8.4779178020
  8     -0.7685042510     2.5499279600     8.5768402370
  8      4.2509449190     2.5499279600     1.6100602960
  8     -0.0759298990     4.5461616970     4.0943692810
  8      3.5583707150     4.5461616970     6.0925306410
  8      2.5231912040     0.0111028980     3.9094997840
  8      0.9592496780     0.0111028980     6.2774004430
  1     -0.1007098660     4.4833206380     3.1270302200
  1      3.5831508040     4.4833206380     7.0598697010
  1      3.4914073950     9.1607491830     3.9533093840
  1     -0.0089668320     9.1607491830     6.2335908430
 22     -0.9200022010     2.8942092360     5.0934501140
 RECIP-PRIMVEC
    0.1878836328   -0.0000000000    0.0339364172

    0.0000000000    0.1084840111   -0.0000000000

    0.0000000000    0.0000000000    0.0981652871

 RECIP-CONVVEC
    0.1878836328   -0.0000000000    0.0339364172

    0.0000000000    0.1084840111   -0.0000000000

    0.0000000000    0.0000000000    0.0981652871

 WIGNER-SEITZ-PRIMCELL
           4
 -0.2661222E+01  0.4608974E+01 -0.4778943E+01  -0.3234753E+00  0.3612088E-16 -0.9462366E+00
 -0.8212163E+00  0.4608974E+01 -0.5407957E+01  -0.3234753E+00  0.3612088E-16 -0.9462366E+00
 -0.8212163E+00 -0.4608974E+01 -0.5407957E+01  -0.3234753E+00  0.3612088E-16 -0.9462366E+00
 -0.2661222E+01 -0.4608974E+01 -0.4778943E+01  -0.3234753E+00  0.3612088E-16 -0.9462366E+00
           4
 -0.2661222E+01  0.4608974E+01 -0.4778943E+01  -0.1000000E+01 -0.0000000E+00 -0.0000000E+00
 -0.2661222E+01 -0.4608974E+01 -0.4778943E+01  -0.1000000E+01 -0.0000000E+00 -0.0000000E+00
 -0.2661222E+01 -0.4608974E+01  0.4778943E+01  -0.1000000E+01 -0.0000000E+00 -0.0000000E+00
 -0.2661222E+01  0.4608974E+01  0.4778943E+01  -0.1000000E+01 -0.0000000E+00 -0.0000000E+00
           6
  0.2661222E+01 -0.4608974E+01  0.4778943E+01  -0.2356291E-30 -0.1000000E+01 -0.1591769E-14
  0.8212163E+00 -0.4608974E+01  0.5407957E+01  -0.2356291E-30 -0.1000000E+01 -0.1591769E-14
 -0.2661222E+01 -0.4608974E+01  0.4778943E+01  -0.2356291E-30 -0.1000000E+01 -0.1591769E-14
 -0.2661222E+01 -0.4608974E+01 -0.4778943E+01  -0.2356291E-30 -0.1000000E+01 -0.1591769E-14
 -0.8212163E+00 -0.4608974E+01 -0.5407957E+01  -0.2356291E-30 -0.1000000E+01 -0.1591769E-14
  0.2661222E+01 -0.4608974E+01 -0.4778943E+01  -0.2356291E-30 -0.1000000E+01 -0.1591769E-14
           4
  0.2661222E+01  0.4608974E+01 -0.4778943E+01   0.1777484E+00 -0.1089109E-15 -0.9840760E+00
  0.2661222E+01 -0.4608974E+01 -0.4778943E+01   0.1777484E+00 -0.1089109E-15 -0.9840760E+00
 -0.8212163E+00 -0.4608974E+01 -0.5407957E+01   0.1777484E+00 -0.1089109E-15 -0.9840760E+00
 -0.8212163E+00  0.4608974E+01 -0.5407957E+01   0.1777484E+00 -0.1089109E-15 -0.9840760E+00
           4
 -0.2661222E+01  0.4608974E+01  0.4778943E+01  -0.1777484E+00  0.1089109E-15  0.9840760E+00
 -0.2661222E+01 -0.4608974E+01  0.4778943E+01  -0.1777484E+00  0.1089109E-15  0.9840760E+00
  0.8212163E+00 -0.4608974E+01  0.5407957E+01  -0.1777484E+00  0.1089109E-15  0.9840760E+00
  0.8212163E+00  0.4608974E+01  0.5407957E+01  -0.1777484E+00  0.1089109E-15  0.9840760E+00
           6
  0.2661222E+01  0.4608974E+01 -0.4778943E+01   0.0000000E+00  0.1000000E+01  0.5305896E-15
 -0.8212163E+00  0.4608974E+01 -0.5407957E+01   0.0000000E+00  0.1000000E+01  0.5305896E-15
 -0.2661222E+01  0.4608974E+01 -0.4778943E+01   0.0000000E+00  0.1000000E+01  0.5305896E-15
 -0.2661222E+01  0.4608974E+01  0.4778943E+01   0.0000000E+00  0.1000000E+01  0.5305896E-15
  0.8212163E+00  0.4608974E+01  0.5407957E+01   0.0000000E+00  0.1000000E+01  0.5305896E-15
  0.2661222E+01  0.4608974E+01  0.4778943E+01   0.0000000E+00  0.1000000E+01  0.5305896E-15
           4
  0.2661222E+01  0.4608974E+01  0.4778943E+01   0.1000000E+01  0.0000000E+00  0.0000000E+00
  0.2661222E+01 -0.4608974E+01  0.4778943E+01   0.1000000E+01  0.0000000E+00  0.0000000E+00
  0.2661222E+01 -0.4608974E+01 -0.4778943E+01   0.1000000E+01  0.0000000E+00  0.0000000E+00
  0.2661222E+01  0.4608974E+01 -0.4778943E+01   0.1000000E+01  0.0000000E+00  0.0000000E+00
           4
  0.8212163E+00 -0.4608974E+01  0.5407957E+01   0.3234753E+00  0.8246129E-16  0.9462366E+00
  0.2661222E+01 -0.4608974E+01  0.4778943E+01   0.3234753E+00  0.8246129E-16  0.9462366E+00
  0.2661222E+01  0.4608974E+01  0.4778943E+01   0.3234753E+00  0.8246129E-16  0.9462366E+00
  0.8212163E+00  0.4608974E+01  0.5407957E+01   0.3234753E+00  0.8246129E-16  0.9462366E+00
 WIGNER-SEITZ-PRIMCELL_END
 WIGNER-SEITZ-CONVCELL
           4
 -0.2661222E+01  0.4608974E+01 -0.4778943E+01  -0.3234753E+00  0.3612088E-16 -0.9462366E+00
 -0.8212163E+00  0.4608974E+01 -0.5407957E+01  -0.3234753E+00  0.3612088E-16 -0.9462366E+00
 -0.8212163E+00 -0.4608974E+01 -0.5407957E+01  -0.3234753E+00  0.3612088E-16 -0.9462366E+00
 -0.2661222E+01 -0.4608974E+01 -0.4778943E+01  -0.3234753E+00  0.3612088E-16 -0.9462366E+00
           4
 -0.2661222E+01  0.4608974E+01 -0.4778943E+01  -0.1000000E+01 -0.0000000E+00 -0.0000000E+00
 -0.2661222E+01 -0.4608974E+01 -0.4778943E+01  -0.1000000E+01 -0.0000000E+00 -0.0000000E+00
 -0.2661222E+01 -0.4608974E+01  0.4778943E+01  -0.1000000E+01 -0.0000000E+00 -0.0000000E+00
 -0.2661222E+01  0.4608974E+01  0.4778943E+01  -0.1000000E+01 -0.0000000E+00 -0.0000000E+00
           6
  0.2661222E+01 -0.4608974E+01  0.4778943E+01  -0.2356291E-30 -0.1000000E+01 -0.1591769E-14
  0.8212163E+00 -0.4608974E+01  0.5407957E+01  -0.2356291E-30 -0.1000000E+01 -0.1591769E-14
 -0.2661222E+01 -0.4608974E+01  0.4778943E+01  -0.2356291E-30 -0.1000000E+01 -0.1591769E-14
 -0.2661222E+01 -0.4608974E+01 -0.4778943E+01  -0.2356291E-30 -0.1000000E+01 -0.1591769E-14
 -0.8212163E+00 -0.4608974E+01 -0.5407957E+01  -0.2356291E-30 -0.1000000E+01 -0.1591769E-14
  0.2661222E+01 -0.4608974E+01 -0.4778943E+01  -0.2356291E-30 -0.1000000E+01 -0.1591769E-14
           4
  0.2661222E+01  0.4608974E+01 -0.4778943E+01   0.1777484E+00 -0.1089109E-15 -0.9840760E+00
  0.2661222E+01 -0.4608974E+01 -0.4778943E+01   0.1777484E+00 -0.1089109E-15 -0.9840760E+00
 -0.8212163E+00 -0.4608974E+01 -0.5407957E+01   0.1777484E+00 -0.1089109E-15 -0.9840760E+00
 -0.8212163E+00  0.4608974E+01 -0.5407957E+01   0.1777484E+00 -0.1089109E-15 -0.9840760E+00
           4
 -0.2661222E+01  0.4608974E+01  0.4778943E+01  -0.1777484E+00  0.1089109E-15  0.9840760E+00
 -0.2661222E+01 -0.4608974E+01  0.4778943E+01  -0.1777484E+00  0.1089109E-15  0.9840760E+00
  0.8212163E+00 -0.4608974E+01  0.5407957E+01  -0.1777484E+00  0.1089109E-15  0.9840760E+00
  0.8212163E+00  0.4608974E+01  0.5407957E+01  -0.1777484E+00  0.1089109E-15  0.9840760E+00
           6
  0.2661222E+01  0.4608974E+01 -0.4778943E+01   0.0000000E+00  0.1000000E+01  0.5305896E-15
 -0.8212163E+00  0.4608974E+01 -0.5407957E+01   0.0000000E+00  0.1000000E+01  0.5305896E-15
 -0.2661222E+01  0.4608974E+01 -0.4778943E+01   0.0000000E+00  0.1000000E+01  0.5305896E-15
 -0.2661222E+01  0.4608974E+01  0.4778943E+01   0.0000000E+00  0.1000000E+01  0.5305896E-15
  0.8212163E+00  0.4608974E+01  0.5407957E+01   0.0000000E+00  0.1000000E+01  0.5305896E-15
  0.2661222E+01  0.4608974E+01  0.4778943E+01   0.0000000E+00  0.1000000E+01  0.5305896E-15
           4
  0.2661222E+01  0.4608974E+01  0.4778943E+01   0.1000000E+01  0.0000000E+00  0.0000000E+00
  0.2661222E+01 -0.4608974E+01  0.4778943E+01   0.1000000E+01  0.0000000E+00  0.0000000E+00
  0.2661222E+01 -0.4608974E+01 -0.4778943E+01   0.1000000E+01  0.0000000E+00  0.0000000E+00
  0.2661222E+01  0.4608974E+01 -0.4778943E+01   0.1000000E+01  0.0000000E+00  0.0000000E+00
           4
  0.8212163E+00 -0.4608974E+01  0.5407957E+01   0.3234753E+00  0.8246129E-16  0.9462366E+00
  0.2661222E+01 -0.4608974E+01  0.4778943E+01   0.3234753E+00  0.8246129E-16  0.9462366E+00
  0.2661222E+01  0.4608974E+01  0.4778943E+01   0.3234753E+00  0.8246129E-16  0.9462366E+00
  0.8212163E+00  0.4608974E+01  0.5407957E+01   0.3234753E+00  0.8246129E-16  0.9462366E+00
 WIGNER-SEITZ-CONVCELL_END
 BRILLOUIN-ZONE-PRIMCELL
           4
  0.9974248E-01 -0.5424201E-01 -0.1514623E-01   0.9462366E+00  0.8530643E-16 -0.3234753E+00
  0.8814116E-01 -0.5424201E-01 -0.4908264E-01   0.9462366E+00  0.8530643E-16 -0.3234753E+00
  0.8814116E-01  0.5424201E-01 -0.4908264E-01   0.9462366E+00  0.8530643E-16 -0.3234753E+00
  0.9974248E-01  0.5424201E-01 -0.1514623E-01   0.9462366E+00  0.8530643E-16 -0.3234753E+00
           4
 -0.8814116E-01  0.5424201E-01 -0.4908264E-01   0.0000000E+00  0.1458019E-15 -0.1000000E+01
  0.8814116E-01  0.5424201E-01 -0.4908264E-01   0.0000000E+00  0.1458019E-15 -0.1000000E+01
  0.8814116E-01 -0.5424201E-01 -0.4908264E-01   0.0000000E+00  0.1458019E-15 -0.1000000E+01
 -0.8814116E-01 -0.5424201E-01 -0.4908264E-01   0.0000000E+00  0.1458019E-15 -0.1000000E+01
           6
  0.8814116E-01 -0.5424201E-01  0.4908264E-01   0.0000000E+00 -0.1000000E+01 -0.2899716E-15
 -0.8814116E-01 -0.5424201E-01  0.4908264E-01   0.0000000E+00 -0.1000000E+01 -0.2899716E-15
 -0.9974248E-01 -0.5424201E-01  0.1514623E-01   0.0000000E+00 -0.1000000E+01 -0.2899716E-15
 -0.8814116E-01 -0.5424201E-01 -0.4908264E-01   0.0000000E+00 -0.1000000E+01 -0.2899716E-15
  0.8814116E-01 -0.5424201E-01 -0.4908264E-01   0.0000000E+00 -0.1000000E+01 -0.2899716E-15
  0.9974248E-01 -0.5424201E-01 -0.1514623E-01   0.0000000E+00 -0.1000000E+01 -0.2899716E-15
           4
  0.8814116E-01  0.5424201E-01  0.4908264E-01   0.9840760E+00 -0.4593716E-16  0.1777484E+00
  0.8814116E-01 -0.5424201E-01  0.4908264E-01   0.9840760E+00 -0.4593716E-16  0.1777484E+00
  0.9974248E-01 -0.5424201E-01 -0.1514623E-01   0.9840760E+00 -0.4593716E-16  0.1777484E+00
  0.9974248E-01  0.5424201E-01 -0.1514623E-01   0.9840760E+00 -0.4593716E-16  0.1777484E+00
           4
 -0.9974248E-01  0.5424201E-01  0.1514623E-01  -0.9840760E+00 -0.4499877E-16 -0.1777484E+00
 -0.8814116E-01  0.5424201E-01 -0.4908264E-01  -0.9840760E+00 -0.4499877E-16 -0.1777484E+00
 -0.8814116E-01 -0.5424201E-01 -0.4908264E-01  -0.9840760E+00 -0.4499877E-16 -0.1777484E+00
 -0.9974248E-01 -0.5424201E-01  0.1514623E-01  -0.9840760E+00 -0.4499877E-16 -0.1777484E+00
           6
  0.9974248E-01  0.5424201E-01 -0.1514623E-01  -0.0000000E+00  0.1000000E+01 -0.2899716E-15
  0.8814116E-01  0.5424201E-01 -0.4908264E-01  -0.0000000E+00  0.1000000E+01 -0.2899716E-15
 -0.8814116E-01  0.5424201E-01 -0.4908264E-01  -0.0000000E+00  0.1000000E+01 -0.2899716E-15
 -0.9974248E-01  0.5424201E-01  0.1514623E-01  -0.0000000E+00  0.1000000E+01 -0.2899716E-15
 -0.8814116E-01  0.5424201E-01  0.4908264E-01  -0.0000000E+00  0.1000000E+01 -0.2899716E-15
  0.8814116E-01  0.5424201E-01  0.4908264E-01  -0.0000000E+00  0.1000000E+01 -0.2899716E-15
           4
  0.8814116E-01 -0.5424201E-01  0.4908264E-01  -0.0000000E+00 -0.9071013E-16  0.1000000E+01
  0.8814116E-01  0.5424201E-01  0.4908264E-01  -0.0000000E+00 -0.9071013E-16  0.1000000E+01
 -0.8814116E-01  0.5424201E-01  0.4908264E-01  -0.0000000E+00 -0.9071013E-16  0.1000000E+01
 -0.8814116E-01 -0.5424201E-01  0.4908264E-01  -0.0000000E+00 -0.9071013E-16  0.1000000E+01
           4
 -0.8814116E-01  0.5424201E-01  0.4908264E-01  -0.9462366E+00 -0.1193393E-15  0.3234753E+00
 -0.9974248E-01  0.5424201E-01  0.1514623E-01  -0.9462366E+00 -0.1193393E-15  0.3234753E+00
 -0.9974248E-01 -0.5424201E-01  0.1514623E-01  -0.9462366E+00 -0.1193393E-15  0.3234753E+00
 -0.8814116E-01 -0.5424201E-01  0.4908264E-01  -0.9462366E+00 -0.1193393E-15  0.3234753E+00
 BRILLOUIN-ZONE-PRIMCELL_END
 BRILLOUIN-ZONE-CONVCELL
           4
  0.9974248E-01 -0.5424201E-01 -0.1514623E-01   0.9462366E+00  0.8530643E-16 -0.3234753E+00
  0.8814116E-01 -0.5424201E-01 -0.4908264E-01   0.9462366E+00  0.8530643E-16 -0.3234753E+00
  0.8814116E-01  0.5424201E-01 -0.4908264E-01   0.9462366E+00  0.8530643E-16 -0.3234753E+00
  0.9974248E-01  0.5424201E-01 -0.1514623E-01   0.9462366E+00  0.8530643E-16 -0.3234753E+00
           4
 -0.8814116E-01  0.5424201E-01 -0.4908264E-01   0.0000000E+00  0.1458019E-15 -0.1000000E+01
  0.8814116E-01  0.5424201E-01 -0.4908264E-01   0.0000000E+00  0.1458019E-15 -0.1000000E+01
  0.8814116E-01 -0.5424201E-01 -0.4908264E-01   0.0000000E+00  0.1458019E-15 -0.1000000E+01
 -0.8814116E-01 -0.5424201E-01 -0.4908264E-01   0.0000000E+00  0.1458019E-15 -0.1000000E+01
           6
  0.8814116E-01 -0.5424201E-01  0.4908264E-01   0.0000000E+00 -0.1000000E+01 -0.2899716E-15
 -0.8814116E-01 -0.5424201E-01  0.4908264E-01   0.0000000E+00 -0.1000000E+01 -0.2899716E-15
 -0.9974248E-01 -0.5424201E-01  0.1514623E-01   0.0000000E+00 -0.1000000E+01 -0.2899716E-15
 -0.8814116E-01 -0.5424201E-01 -0.4908264E-01   0.0000000E+00 -0.1000000E+01 -0.2899716E-15
  0.8814116E-01 -0.5424201E-01 -0.4908264E-01   0.0000000E+00 -0.1000000E+01 -0.2899716E-15
  0.9974248E-01 -0.5424201E-01 -0.1514623E-01   0.0000000E+00 -0.1000000E+01 -0.2899716E-15
           4
  0.8814116E-01  0.5424201E-01  0.4908264E-01   0.9840760E+00 -0.4593716E-16  0.1777484E+00
  0.8814116E-01 -0.5424201E-01  0.4908264E-01   0.9840760E+00 -0.4593716E-16  0.1777484E+00
  0.9974248E-01 -0.5424201E-01 -0.1514623E-01   0.9840760E+00 -0.4593716E-16  0.1777484E+00
  0.9974248E-01  0.5424201E-01 -0.1514623E-01   0.9840760E+00 -0.4593716E-16  0.1777484E+00
           4
 -0.9974248E-01  0.5424201E-01  0.1514623E-01  -0.9840760E+00 -0.4499877E-16 -0.1777484E+00
 -0.8814116E-01  0.5424201E-01 -0.4908264E-01  -0.9840760E+00 -0.4499877E-16 -0.1777484E+00
 -0.8814116E-01 -0.5424201E-01 -0.4908264E-01  -0.9840760E+00 -0.4499877E-16 -0.1777484E+00
 -0.9974248E-01 -0.5424201E-01  0.1514623E-01  -0.9840760E+00 -0.4499877E-16 -0.1777484E+00
           6
  0.9974248E-01  0.5424201E-01 -0.1514623E-01  -0.0000000E+00  0.1000000E+01 -0.2899716E-15
  0.8814116E-01  0.5424201E-01 -0.4908264E-01  -0.0000000E+00  0.1000000E+01 -0.2899716E-15
 -0.8814116E-01  0.5424201E-01 -0.4908264E-01  -0.0000000E+00  0.1000000E+01 -0.2899716E-15
 -0.9974248E-01  0.5424201E-01  0.1514623E-01  -0.0000000E+00  0.1000000E+01 -0.2899716E-15
 -0.8814116E-01  0.5424201E-01  0.4908264E-01  -0.0000000E+00  0.1000000E+01 -0.2899716E-15
  0.8814116E-01  0.5424201E-01  0.4908264E-01  -0.0000000E+00  0.1000000E+01 -0.2899716E-15
           4
  0.8814116E-01 -0.5424201E-01  0.4908264E-01  -0.0000000E+00 -0.9071013E-16  0.1000000E+01
  0.8814116E-01  0.5424201E-01  0.4908264E-01  -0.0000000E+00 -0.9071013E-16  0.1000000E+01
 -0.8814116E-01  0.5424201E-01  0.4908264E-01  -0.0000000E+00 -0.9071013E-16  0.1000000E+01
 -0.8814116E-01 -0.5424201E-01  0.4908264E-01  -0.0000000E+00 -0.9071013E-16  0.1000000E+01
           4
 -0.8814116E-01  0.5424201E-01  0.4908264E-01  -0.9462366E+00 -0.1193393E-15  0.3234753E+00
 -0.9974248E-01  0.5424201E-01  0.1514623E-01  -0.9462366E+00 -0.1193393E-15  0.3234753E+00
 -0.9974248E-01 -0.5424201E-01  0.1514623E-01  -0.9462366E+00 -0.1193393E-15  0.3234753E+00
 -0.8814116E-01 -0.5424201E-01  0.4908264E-01  -0.9462366E+00 -0.1193393E-15  0.3234753E+00
 BRILLOUIN-ZONE-CONVCELL_END
 ATOMS
   19    0.0000000000    4.6538440240    0.0000000000    0.0000000000   -0.0005538600    0.0000000000
   19    2.6612225630    0.0079893250    0.0000000000    0.0000000000    0.0002554200    0.0000000000
   12   -0.9200022010    6.2458100960    5.0934501140    0.0000000000    0.0002992200    0.0000000000
   12    1.7412203610    4.6356931770    5.0934501140    0.0000000000   -0.0000515700    0.0000000000
   12    1.7412203610    7.7875643490    5.0934501140    0.0000000000   -0.0003863600    0.0000000000
   12    1.7412203610    1.3989697920    5.0934501140    0.0000000000    0.0007412600    0.0000000000
   14    0.0495053240    1.5559758160    2.2290228080   -0.0001900300    0.0002335600    0.0001219000
   14    3.4329353250    1.5559758160    7.9578780300    0.0001900300    0.0002335600   -0.0001219000
   14    3.5187717810    7.6905986180    7.8216592800   -0.0000315100   -0.0000422700   -0.0000932400
   14   -0.0363311750    7.6905986180    2.3652409470    0.0000315100   -0.0000422700    0.0000932400
   14    2.5956205960    6.1913750530    2.3225534380   -0.0000579700   -0.0003260600    0.0004095700
   14    0.8868201260    6.1913750530    7.8643467890    0.0000579700   -0.0003260600   -0.0004095700
   13    0.7712462410    3.0601334410    7.9248550410    0.0002196200   -0.0000952400   -0.0002878600
   13    2.7111946410    3.0601334410    2.2620451850   -0.0002196200   -0.0000952400    0.0002878600
    8   -0.0197605710    1.7162231150    3.8897647520    0.0006214000   -0.0003392200    0.0003077300
    8    3.5022011580    1.7162231150    6.2971357800   -0.0006214000   -0.0003392200   -0.0003077300
    8    3.4706343160    7.5813445830    6.2344434440    0.0000550600    0.0002122400   -0.0002246700
    8    0.0118064310    7.5813445830    3.9524570890   -0.0000550600    0.0002122400    0.0002246700
    8    2.6129965900    6.1491974860    3.9545803950   -0.0001192000    0.0001648400    0.0004054700
    8    0.8694442390    6.1491974860    6.2323201270    0.0001192000    0.0001648400   -0.0004054700
    8    0.7181259640    3.0569043040    6.1293187960   -0.0000745300   -0.0001287000   -0.0003538100
    8    2.7643146550    3.0569043040    4.0575811250    0.0000745300   -0.0001287000    0.0003538100
    8    1.4849852120    1.9934447610    1.6453259020   -0.0004062600   -0.0000074300    0.0001676700
    8    1.9974557510    1.9934447610    8.5415738770    0.0004062600   -0.0000074300   -0.0001676700
    8    2.1291177380    7.0928771530    8.5042662620   -0.0000236800    0.0000386900    0.0000779600
    8    1.3533229580    7.0928771530    1.6826341180    0.0000236800    0.0000386900   -0.0000779600
    8    4.0208705690    6.8118433800    1.7300152830    0.0000831500   -0.0003379300   -0.0002307300
    8   -0.5384299460    6.8118433800    8.4568846390   -0.0000831500   -0.0003379300    0.0002307300
    8    2.4017742690    4.6991434810    1.7089824260   -0.0002205300    0.0000732100   -0.0006064300
    8    1.0806663000    4.6991434810    8.4779178020    0.0002205300    0.0000732100    0.0006064300
    8   -0.7685042510    2.5499279600    8.5768402370    0.0002986800    0.0000565700    0.0005984600
    8    4.2509449190    2.5499279600    1.6100602960   -0.0002986800    0.0000565700   -0.0005984600
    8   -0.0759298990    4.5461616970    4.0943692810    0.0002753500    0.0001034900   -0.0007436000
    8    3.5583707150    4.5461616970    6.0925306410   -0.0002753500    0.0001034900    0.0007436000
    8    2.5231912040    0.0111028980    3.9094997840    0.0000741200   -0.0000391600    0.0000433500
    8    0.9592496780    0.0111028980    6.2774004430   -0.0000741200   -0.0000391600   -0.0000433500
    1   -0.1007098660    4.4833206380    3.1270302200   -0.0000805800    0.0002269500   -0.0004699100
    1    3.5831508040    4.4833206380    7.0598697010    0.0000805800    0.0002269500    0.0004699100
    1    3.4914073950    9.1607491830    3.9533093840   -0.0000149200    0.0001007900   -0.0001093300
    1   -0.0089668320    9.1607491830    6.2335908430    0.0000149200    0.0001007900    0.0001093300
   22   -0.9200022010    2.8942092360    5.0934501140    0.0000000000    0.0003511700    0.0000000000
   19   -1.8400054130    4.6538440240   10.1869003740    0.0000000000   -0.0005538600    0.0000000000
   19    0.8212171500    0.0079893250   10.1869003740    0.0000000000    0.0002554200    0.0000000000
    8   -0.2512665090    9.2170551260    1.7802813940   -0.0000073100   -0.0002219600   -0.0003147000
    8    3.7337073150    9.2170551260    8.4066183750    0.0000073100   -0.0002219600    0.0003147000
   19    5.3224433930    4.6538440240    0.0000000000    0.0000000000   -0.0005538600    0.0000000000
   12    4.4024411920    6.2458100960    5.0934501140    0.0000000000    0.0002992200    0.0000000000
   22    4.4024411920    2.8942092360    5.0934501140    0.0000000000    0.0003511700    0.0000000000
   19    3.4824379800    4.6538440240   10.1869003740    0.0000000000   -0.0005538600    0.0000000000
 FRAMES
1      0.0000000000    0.0000000000    0.0000000000      5.3224433930    0.0000000000    0.0000000000
1      0.0000000000    0.0000000000    0.0000000000      0.0000000000    9.2179482470    0.0000000000
1      0.0000000000    0.0000000000    0.0000000000     -1.8400054130    0.0000000000   10.1869003740
1     -1.8400054130    0.0000000000   10.1869003740      3.4824379800    0.0000000000   10.1869003740
1     -1.8400054130    0.0000000000   10.1869003740     -1.8400054130    9.2179482470   10.1869003740
1      0.0000000000    9.2179482470    0.0000000000      5.3224433930    9.2179482470    0.0000000000
1      0.0000000000    9.2179482470    0.0000000000     -1.8400054130    9.2179482470   10.1869003740
1     -1.8400054130    9.2179482470   10.1869003740      3.4824379800    9.2179482470   10.1869003740
1      5.3224433930    0.0000000000    0.0000000000      5.3224433930    9.2179482470    0.0000000000
1      5.3224433930    0.0000000000    0.0000000000      3.4824379800    0.0000000000   10.1869003740
1      3.4824379800    0.0000000000   10.1869003740      3.4824379800    9.2179482470   10.1869003740
1      5.3224433930    9.2179482470    0.0000000000      3.4824379800    9.2179482470   10.1869003740
