 INFO
nunit      1    1    1
unit   cell
celltype   primcell
shape   parapipedal
 END_INFO
 DIM-GROUP
           3           1
 PRIMVEC
    5.2989900630    0.0000000000    0.0000000000
    0.0000000000    9.1953692500    0.0000000000
   -1.8126838200    0.0000000000   10.0463340640
 CONVVEC
    5.2989900630    0.0000000000    0.0000000000
    0.0000000000    9.1953692500    0.0000000000
   -1.8126838200    0.0000000000   10.0463340640
 PRIMCOORD
          44           1
 19      0.0000000000     4.5937013140     0.0000000000     0.0000000000     0.0004628200     0.0000000000
 19      2.6494950310     0.0273066630     0.0000000000     0.0000000000    -0.0003941000     0.0000000000
 12     -0.9063419100     0.0789069410     5.0231670320     0.0000000000    -0.0004798100     0.0000000000
 12     -0.9063419100     6.0808896150     5.0231670320     0.0000000000     0.0001483400     0.0000000000
 12      1.7431531220     4.5117042870     5.0231670320     0.0000000000    -0.0005808700     0.0000000000
 12      1.7431531220     7.6791687120     5.0231670320     0.0000000000     0.0004913600     0.0000000000
 12      1.7431531220     1.6056546680     5.0231670320     0.0000000000    -0.0008251300     0.0000000000
 14      0.0502892480     1.5453320070     2.2412465460     0.0003993100    -0.0000561200    -0.0002582800
 14      3.4360168670     1.5453320070     7.8050878200    -0.0003993100    -0.0000561200     0.0002582800
 14      3.5617165120     7.6843565800     7.7384826490     0.0001397400    -0.0000009800    -0.0000508700
 14     -0.0754102690     7.6843565800     2.3078514150    -0.0001397400    -0.0000009800     0.0000508700
 14      2.5709028470     6.1350686180     2.2789509750    -0.0002714600    -0.0000309600    -0.0000943800
 14      0.9154034240     6.1350686180     7.7673829390     0.0002714600    -0.0000309600     0.0000943800
 13      0.7726802930     3.0575459870     7.7981124700    -0.0006519000    -0.0001359100     0.0005171800
 13      2.7136259510     3.0575459870     2.2482215940     0.0006519000    -0.0001359100    -0.0005171800
  8     -0.0246956580     1.5435908600     3.8769823960    -0.0006692100     0.0003103300    -0.0002896400
  8      3.5110016900     1.5435908600     6.1693519600     0.0006692100     0.0003103300     0.0002896400
  8      3.5339020430     7.6549252420     6.1216736680    -0.0002248300    -0.0003560000    -0.0001474600
  8     -0.0475957990     7.6549252420     3.9246603960     0.0002248300    -0.0003560000     0.0001474600
  8      2.6009769860     6.1388872270     3.9059546210    -0.0000128600     0.0004613500    -0.0003427000
  8      0.8853292580     6.1388872270     6.1403794430     0.0000128600     0.0004613500     0.0003427000
  8      0.8122969710     3.0644323930     6.0673142460    -0.0007522000     0.0000389500     0.0005985200
  8      2.6740092720     3.0644323930     3.9790198190     0.0007522000     0.0000389500    -0.0005985200
  8      1.5397722650     1.8655192150     1.6688014760     0.0005055100    -0.0000782200     0.0001261600
  8      1.9465340330     1.8655192150     8.3775322870    -0.0005055100    -0.0000782200    -0.0001261600
  8      4.9758795550     9.1920955580     1.7046633340     0.0000980500     0.0000345900    -0.0000344800
  8     -1.4895732840     9.1920955580     8.3416705790    -0.0000980500     0.0000345900     0.0000344800
  8      2.1259259970     7.1303474830     8.3455659150     0.0002725700    -0.0000497300    -0.0000336500
  8      1.3603802460     7.1303474830     1.7007681500    -0.0002725700    -0.0000497300     0.0000336500
  8      4.0026265790     6.7575178560     1.6887585900    -0.0004216100     0.0004568900     0.0004654600
  8     -0.5163203360     6.7575178560     8.3575754740     0.0004216100     0.0004568900    -0.0004654600
  8      2.3441863290     4.6782118700     1.6170818510     0.0001517800    -0.0003698100     0.0000894100
  8      1.1421197280     4.6782118700     8.4292523640    -0.0001517800    -0.0003698100    -0.0000894100
  8     -0.7956638270     2.5826584490     8.4578145020    -0.0003874400    -0.0002508700    -0.0003061400
  8      4.2819701490     2.5826584490     1.5885195620     0.0003874400    -0.0002508700     0.0003061400
  8     -0.0502017920     4.5617980340     3.9734757450     0.0001396000     0.0002062600     0.0009479700
  8      3.5365081150     4.5617980340     6.0728583190    -0.0001396000     0.0002062600    -0.0009479700
  8      2.6275160540     9.1976943210     3.9921896430    -0.0000925700    -0.0003872700     0.0002441200
  8      0.8587902430     9.1976943210     6.0541441200     0.0000925700    -0.0003872700    -0.0002441200
  1     -0.0992648220     4.3760866230     3.0242694720     0.0001122600     0.0003935300    -0.0003440000
  1      3.5855712250     4.3760866230     7.0220645930    -0.0001122600     0.0003935300     0.0003440000
  1      2.6052869400     0.1626712000     3.0394037530    -0.0001927700     0.0001731900    -0.0000934200
  1      0.8810193040     0.1626712000     7.0069303120     0.0001927700     0.0001731900     0.0000934200
 26     -0.9063419100     3.0632667720     5.0231670320     0.0000000000     0.0004589800     0.0000000000
 CONVCOORD
          44           1
 19      0.0000000000     4.5937013140     0.0000000000
 19      2.6494950310     0.0273066630     0.0000000000
 12     -0.9063419100     0.0789069410     5.0231670320
 12     -0.9063419100     6.0808896150     5.0231670320
 12      1.7431531220     4.5117042870     5.0231670320
 12      1.7431531220     7.6791687120     5.0231670320
 12      1.7431531220     1.6056546680     5.0231670320
 14      0.0502892480     1.5453320070     2.2412465460
 14      3.4360168670     1.5453320070     7.8050878200
 14      3.5617165120     7.6843565800     7.7384826490
 14     -0.0754102690     7.6843565800     2.3078514150
 14      2.5709028470     6.1350686180     2.2789509750
 14      0.9154034240     6.1350686180     7.7673829390
 13      0.7726802930     3.0575459870     7.7981124700
 13      2.7136259510     3.0575459870     2.2482215940
  8     -0.0246956580     1.5435908600     3.8769823960
  8      3.5110016900     1.5435908600     6.1693519600
  8      3.5339020430     7.6549252420     6.1216736680
  8     -0.0475957990     7.6549252420     3.9246603960
  8      2.6009769860     6.1388872270     3.9059546210
  8      0.8853292580     6.1388872270     6.1403794430
  8      0.8122969710     3.0644323930     6.0673142460
  8      2.6740092720     3.0644323930     3.9790198190
  8      1.5397722650     1.8655192150     1.6688014760
  8      1.9465340330     1.8655192150     8.3775322870
  8      4.9758795550     9.1920955580     1.7046633340
  8     -1.4895732840     9.1920955580     8.3416705790
  8      2.1259259970     7.1303474830     8.3455659150
  8      1.3603802460     7.1303474830     1.7007681500
  8      4.0026265790     6.7575178560     1.6887585900
  8     -0.5163203360     6.7575178560     8.3575754740
  8      2.3441863290     4.6782118700     1.6170818510
  8      1.1421197280     4.6782118700     8.4292523640
  8     -0.7956638270     2.5826584490     8.4578145020
  8      4.2819701490     2.5826584490     1.5885195620
  8     -0.0502017920     4.5617980340     3.9734757450
  8      3.5365081150     4.5617980340     6.0728583190
  8      2.6275160540     0.0023250710     3.9921896430
  8      0.8587902430     0.0023250710     6.0541441200
  1     -0.0992648220     4.3760866230     3.0242694720
  1      3.5855712250     4.3760866230     7.0220645930
  1      2.6052869400     0.1626712000     3.0394037530
  1      0.8810193040     0.1626712000     7.0069303120
 26     -0.9063419100     3.0632667720     5.0231670320
 RECIP-PRIMVEC
    0.1887152057   -0.0000000000    0.0340503310

    0.0000000000    0.1087503909   -0.0000000000

    0.0000000000    0.0000000000    0.0995387963

 RECIP-CONVVEC
    0.1887152057   -0.0000000000    0.0340503310

    0.0000000000    0.1087503909   -0.0000000000

    0.0000000000    0.0000000000    0.0995387963

 WIGNER-SEITZ-PRIMCELL
           4
 -0.2649495E+01  0.4597685E+01 -0.4708646E+01  -0.3278435E+00 -0.1009766E-15 -0.9447320E+00
 -0.8368112E+00  0.4597685E+01 -0.5337688E+01  -0.3278435E+00 -0.1009766E-15 -0.9447320E+00
 -0.8368112E+00 -0.4597685E+01 -0.5337688E+01  -0.3278435E+00 -0.1009766E-15 -0.9447320E+00
 -0.2649495E+01 -0.4597685E+01 -0.4708646E+01  -0.3278435E+00 -0.1009766E-15 -0.9447320E+00
           4
 -0.2649495E+01  0.4597685E+01 -0.4708646E+01  -0.1000000E+01  0.4829488E-16  0.4554862E-32
 -0.2649495E+01 -0.4597685E+01 -0.4708646E+01  -0.1000000E+01  0.4829488E-16  0.4554862E-32
 -0.2649495E+01 -0.4597685E+01  0.4708646E+01  -0.1000000E+01  0.4829488E-16  0.4554862E-32
 -0.2649495E+01  0.4597685E+01  0.4708646E+01  -0.1000000E+01  0.4829488E-16  0.4554862E-32
           6
  0.2649495E+01 -0.4597685E+01  0.4708646E+01  -0.0000000E+00 -0.1000000E+01  0.1065828E-14
  0.8368112E+00 -0.4597685E+01  0.5337688E+01  -0.0000000E+00 -0.1000000E+01  0.1065828E-14
 -0.2649495E+01 -0.4597685E+01  0.4708646E+01  -0.0000000E+00 -0.1000000E+01  0.1065828E-14
 -0.2649495E+01 -0.4597685E+01 -0.4708646E+01  -0.0000000E+00 -0.1000000E+01  0.1065828E-14
 -0.8368112E+00 -0.4597685E+01 -0.5337688E+01  -0.0000000E+00 -0.1000000E+01  0.1065828E-14
  0.2649495E+01 -0.4597685E+01 -0.4708646E+01  -0.0000000E+00 -0.1000000E+01  0.1065828E-14
           4
  0.2649495E+01 -0.4597685E+01 -0.4708646E+01   0.1775651E+00 -0.2181216E-15 -0.9841091E+00
 -0.8368112E+00 -0.4597685E+01 -0.5337688E+01   0.1775651E+00 -0.2181216E-15 -0.9841091E+00
 -0.8368112E+00  0.4597685E+01 -0.5337688E+01   0.1775651E+00 -0.2181216E-15 -0.9841091E+00
  0.2649495E+01  0.4597685E+01 -0.4708646E+01   0.1775651E+00 -0.2181216E-15 -0.9841091E+00
           4
 -0.2649495E+01  0.4597685E+01  0.4708646E+01  -0.1775651E+00 -0.0000000E+00  0.9841091E+00
 -0.2649495E+01 -0.4597685E+01  0.4708646E+01  -0.1775651E+00 -0.0000000E+00  0.9841091E+00
  0.8368112E+00 -0.4597685E+01  0.5337688E+01  -0.1775651E+00 -0.0000000E+00  0.9841091E+00
  0.8368112E+00  0.4597685E+01  0.5337688E+01  -0.1775651E+00 -0.0000000E+00  0.9841091E+00
           6
  0.2649495E+01  0.4597685E+01 -0.4708646E+01   0.0000000E+00  0.1000000E+01  0.1065828E-14
 -0.8368112E+00  0.4597685E+01 -0.5337688E+01   0.0000000E+00  0.1000000E+01  0.1065828E-14
 -0.2649495E+01  0.4597685E+01 -0.4708646E+01   0.0000000E+00  0.1000000E+01  0.1065828E-14
 -0.2649495E+01  0.4597685E+01  0.4708646E+01   0.0000000E+00  0.1000000E+01  0.1065828E-14
  0.8368112E+00  0.4597685E+01  0.5337688E+01   0.0000000E+00  0.1000000E+01  0.1065828E-14
  0.2649495E+01  0.4597685E+01  0.4708646E+01   0.0000000E+00  0.1000000E+01  0.1065828E-14
           4
  0.2649495E+01  0.4597685E+01  0.4708646E+01   0.1000000E+01 -0.4829488E-16  0.0000000E+00
  0.2649495E+01 -0.4597685E+01  0.4708646E+01   0.1000000E+01 -0.4829488E-16  0.0000000E+00
  0.2649495E+01 -0.4597685E+01 -0.4708646E+01   0.1000000E+01 -0.4829488E-16  0.0000000E+00
  0.2649495E+01  0.4597685E+01 -0.4708646E+01   0.1000000E+01 -0.4829488E-16  0.0000000E+00
           4
  0.8368112E+00 -0.4597685E+01  0.5337688E+01   0.3278435E+00  0.3334111E-16  0.9447320E+00
  0.2649495E+01 -0.4597685E+01  0.4708646E+01   0.3278435E+00  0.3334111E-16  0.9447320E+00
  0.2649495E+01  0.4597685E+01  0.4708646E+01   0.3278435E+00  0.3334111E-16  0.9447320E+00
  0.8368112E+00  0.4597685E+01  0.5337688E+01   0.3278435E+00  0.3334111E-16  0.9447320E+00
 WIGNER-SEITZ-PRIMCELL_END
 WIGNER-SEITZ-CONVCELL
           4
 -0.2649495E+01  0.4597685E+01 -0.4708646E+01  -0.3278435E+00 -0.1009766E-15 -0.9447320E+00
 -0.8368112E+00  0.4597685E+01 -0.5337688E+01  -0.3278435E+00 -0.1009766E-15 -0.9447320E+00
 -0.8368112E+00 -0.4597685E+01 -0.5337688E+01  -0.3278435E+00 -0.1009766E-15 -0.9447320E+00
 -0.2649495E+01 -0.4597685E+01 -0.4708646E+01  -0.3278435E+00 -0.1009766E-15 -0.9447320E+00
           4
 -0.2649495E+01  0.4597685E+01 -0.4708646E+01  -0.1000000E+01  0.4829488E-16  0.4554862E-32
 -0.2649495E+01 -0.4597685E+01 -0.4708646E+01  -0.1000000E+01  0.4829488E-16  0.4554862E-32
 -0.2649495E+01 -0.4597685E+01  0.4708646E+01  -0.1000000E+01  0.4829488E-16  0.4554862E-32
 -0.2649495E+01  0.4597685E+01  0.4708646E+01  -0.1000000E+01  0.4829488E-16  0.4554862E-32
           6
  0.2649495E+01 -0.4597685E+01  0.4708646E+01  -0.0000000E+00 -0.1000000E+01  0.1065828E-14
  0.8368112E+00 -0.4597685E+01  0.5337688E+01  -0.0000000E+00 -0.1000000E+01  0.1065828E-14
 -0.2649495E+01 -0.4597685E+01  0.4708646E+01  -0.0000000E+00 -0.1000000E+01  0.1065828E-14
 -0.2649495E+01 -0.4597685E+01 -0.4708646E+01  -0.0000000E+00 -0.1000000E+01  0.1065828E-14
 -0.8368112E+00 -0.4597685E+01 -0.5337688E+01  -0.0000000E+00 -0.1000000E+01  0.1065828E-14
  0.2649495E+01 -0.4597685E+01 -0.4708646E+01  -0.0000000E+00 -0.1000000E+01  0.1065828E-14
           4
  0.2649495E+01 -0.4597685E+01 -0.4708646E+01   0.1775651E+00 -0.2181216E-15 -0.9841091E+00
 -0.8368112E+00 -0.4597685E+01 -0.5337688E+01   0.1775651E+00 -0.2181216E-15 -0.9841091E+00
 -0.8368112E+00  0.4597685E+01 -0.5337688E+01   0.1775651E+00 -0.2181216E-15 -0.9841091E+00
  0.2649495E+01  0.4597685E+01 -0.4708646E+01   0.1775651E+00 -0.2181216E-15 -0.9841091E+00
           4
 -0.2649495E+01  0.4597685E+01  0.4708646E+01  -0.1775651E+00 -0.0000000E+00  0.9841091E+00
 -0.2649495E+01 -0.4597685E+01  0.4708646E+01  -0.1775651E+00 -0.0000000E+00  0.9841091E+00
  0.8368112E+00 -0.4597685E+01  0.5337688E+01  -0.1775651E+00 -0.0000000E+00  0.9841091E+00
  0.8368112E+00  0.4597685E+01  0.5337688E+01  -0.1775651E+00 -0.0000000E+00  0.9841091E+00
           6
  0.2649495E+01  0.4597685E+01 -0.4708646E+01   0.0000000E+00  0.1000000E+01  0.1065828E-14
 -0.8368112E+00  0.4597685E+01 -0.5337688E+01   0.0000000E+00  0.1000000E+01  0.1065828E-14
 -0.2649495E+01  0.4597685E+01 -0.4708646E+01   0.0000000E+00  0.1000000E+01  0.1065828E-14
 -0.2649495E+01  0.4597685E+01  0.4708646E+01   0.0000000E+00  0.1000000E+01  0.1065828E-14
  0.8368112E+00  0.4597685E+01  0.5337688E+01   0.0000000E+00  0.1000000E+01  0.1065828E-14
  0.2649495E+01  0.4597685E+01  0.4708646E+01   0.0000000E+00  0.1000000E+01  0.1065828E-14
           4
  0.2649495E+01  0.4597685E+01  0.4708646E+01   0.1000000E+01 -0.4829488E-16  0.0000000E+00
  0.2649495E+01 -0.4597685E+01  0.4708646E+01   0.1000000E+01 -0.4829488E-16  0.0000000E+00
  0.2649495E+01 -0.4597685E+01 -0.4708646E+01   0.1000000E+01 -0.4829488E-16  0.0000000E+00
  0.2649495E+01  0.4597685E+01 -0.4708646E+01   0.1000000E+01 -0.4829488E-16  0.0000000E+00
           4
  0.8368112E+00 -0.4597685E+01  0.5337688E+01   0.3278435E+00  0.3334111E-16  0.9447320E+00
  0.2649495E+01 -0.4597685E+01  0.4708646E+01   0.3278435E+00  0.3334111E-16  0.9447320E+00
  0.2649495E+01  0.4597685E+01  0.4708646E+01   0.3278435E+00  0.3334111E-16  0.9447320E+00
  0.8368112E+00  0.4597685E+01  0.5337688E+01   0.3278435E+00  0.3334111E-16  0.9447320E+00
 WIGNER-SEITZ-CONVCELL_END
 BRILLOUIN-ZONE-PRIMCELL
           4
  0.1002657E+00  0.5437520E-01 -0.1571907E-01   0.9447320E+00  0.5532186E-16 -0.3278435E+00
  0.1002657E+00 -0.5437520E-01 -0.1571907E-01   0.9447320E+00  0.5532186E-16 -0.3278435E+00
  0.8844948E-01 -0.5437520E-01 -0.4976940E-01   0.9447320E+00  0.5532186E-16 -0.3278435E+00
  0.8844948E-01  0.5437520E-01 -0.4976940E-01   0.9447320E+00  0.5532186E-16 -0.3278435E+00
           4
 -0.8844948E-01  0.5437520E-01 -0.4976940E-01   0.0000000E+00 -0.5426985E-16 -0.1000000E+01
  0.8844948E-01  0.5437520E-01 -0.4976940E-01   0.0000000E+00 -0.5426985E-16 -0.1000000E+01
  0.8844948E-01 -0.5437520E-01 -0.4976940E-01   0.0000000E+00 -0.5426985E-16 -0.1000000E+01
 -0.8844948E-01 -0.5437520E-01 -0.4976940E-01   0.0000000E+00 -0.5426985E-16 -0.1000000E+01
           6
  0.8844948E-01 -0.5437520E-01  0.4976940E-01   0.0000000E+00 -0.1000000E+01  0.2879941E-15
 -0.8844948E-01 -0.5437520E-01  0.4976940E-01   0.0000000E+00 -0.1000000E+01  0.2879941E-15
 -0.1002657E+00 -0.5437520E-01  0.1571907E-01   0.0000000E+00 -0.1000000E+01  0.2879941E-15
 -0.8844948E-01 -0.5437520E-01 -0.4976940E-01   0.0000000E+00 -0.1000000E+01  0.2879941E-15
  0.8844948E-01 -0.5437520E-01 -0.4976940E-01   0.0000000E+00 -0.1000000E+01  0.2879941E-15
  0.1002657E+00 -0.5437520E-01 -0.1571907E-01   0.0000000E+00 -0.1000000E+01  0.2879941E-15
           4
  0.8844948E-01  0.5437520E-01  0.4976940E-01   0.9841091E+00 -0.3370857E-15  0.1775651E+00
  0.8844948E-01 -0.5437520E-01  0.4976940E-01   0.9841091E+00 -0.3370857E-15  0.1775651E+00
  0.1002657E+00 -0.5437520E-01 -0.1571907E-01   0.9841091E+00 -0.3370857E-15  0.1775651E+00
  0.1002657E+00  0.5437520E-01 -0.1571907E-01   0.9841091E+00 -0.3370857E-15  0.1775651E+00
           4
 -0.8844948E-01  0.5437520E-01 -0.4976940E-01  -0.9841091E+00 -0.1498159E-15 -0.1775651E+00
 -0.8844948E-01 -0.5437520E-01 -0.4976940E-01  -0.9841091E+00 -0.1498159E-15 -0.1775651E+00
 -0.1002657E+00 -0.5437520E-01  0.1571907E-01  -0.9841091E+00 -0.1498159E-15 -0.1775651E+00
 -0.1002657E+00  0.5437520E-01  0.1571907E-01  -0.9841091E+00 -0.1498159E-15 -0.1775651E+00
           6
  0.1002657E+00  0.5437520E-01 -0.1571907E-01  -0.0000000E+00  0.1000000E+01  0.2879941E-15
  0.8844948E-01  0.5437520E-01 -0.4976940E-01  -0.0000000E+00  0.1000000E+01  0.2879941E-15
 -0.8844948E-01  0.5437520E-01 -0.4976940E-01  -0.0000000E+00  0.1000000E+01  0.2879941E-15
 -0.1002657E+00  0.5437520E-01  0.1571907E-01  -0.0000000E+00  0.1000000E+01  0.2879941E-15
 -0.8844948E-01  0.5437520E-01  0.4976940E-01  -0.0000000E+00  0.1000000E+01  0.2879941E-15
  0.8844948E-01  0.5437520E-01  0.4976940E-01  -0.0000000E+00  0.1000000E+01  0.2879941E-15
           4
  0.8844948E-01 -0.5437520E-01  0.4976940E-01  -0.0000000E+00 -0.0000000E+00  0.1000000E+01
  0.8844948E-01  0.5437520E-01  0.4976940E-01  -0.0000000E+00 -0.0000000E+00  0.1000000E+01
 -0.8844948E-01  0.5437520E-01  0.4976940E-01  -0.0000000E+00 -0.0000000E+00  0.1000000E+01
 -0.8844948E-01 -0.5437520E-01  0.4976940E-01  -0.0000000E+00 -0.0000000E+00  0.1000000E+01
           4
 -0.1002657E+00  0.5437520E-01  0.1571907E-01  -0.9447320E+00 -0.1383046E-15  0.3278435E+00
 -0.1002657E+00 -0.5437520E-01  0.1571907E-01  -0.9447320E+00 -0.1383046E-15  0.3278435E+00
 -0.8844948E-01 -0.5437520E-01  0.4976940E-01  -0.9447320E+00 -0.1383046E-15  0.3278435E+00
 -0.8844948E-01  0.5437520E-01  0.4976940E-01  -0.9447320E+00 -0.1383046E-15  0.3278435E+00
 BRILLOUIN-ZONE-PRIMCELL_END
 BRILLOUIN-ZONE-CONVCELL
           4
  0.1002657E+00  0.5437520E-01 -0.1571907E-01   0.9447320E+00  0.5532186E-16 -0.3278435E+00
  0.1002657E+00 -0.5437520E-01 -0.1571907E-01   0.9447320E+00  0.5532186E-16 -0.3278435E+00
  0.8844948E-01 -0.5437520E-01 -0.4976940E-01   0.9447320E+00  0.5532186E-16 -0.3278435E+00
  0.8844948E-01  0.5437520E-01 -0.4976940E-01   0.9447320E+00  0.5532186E-16 -0.3278435E+00
           4
 -0.8844948E-01  0.5437520E-01 -0.4976940E-01   0.0000000E+00 -0.5426985E-16 -0.1000000E+01
  0.8844948E-01  0.5437520E-01 -0.4976940E-01   0.0000000E+00 -0.5426985E-16 -0.1000000E+01
  0.8844948E-01 -0.5437520E-01 -0.4976940E-01   0.0000000E+00 -0.5426985E-16 -0.1000000E+01
 -0.8844948E-01 -0.5437520E-01 -0.4976940E-01   0.0000000E+00 -0.5426985E-16 -0.1000000E+01
           6
  0.8844948E-01 -0.5437520E-01  0.4976940E-01   0.0000000E+00 -0.1000000E+01  0.2879941E-15
 -0.8844948E-01 -0.5437520E-01  0.4976940E-01   0.0000000E+00 -0.1000000E+01  0.2879941E-15
 -0.1002657E+00 -0.5437520E-01  0.1571907E-01   0.0000000E+00 -0.1000000E+01  0.2879941E-15
 -0.8844948E-01 -0.5437520E-01 -0.4976940E-01   0.0000000E+00 -0.1000000E+01  0.2879941E-15
  0.8844948E-01 -0.5437520E-01 -0.4976940E-01   0.0000000E+00 -0.1000000E+01  0.2879941E-15
  0.1002657E+00 -0.5437520E-01 -0.1571907E-01   0.0000000E+00 -0.1000000E+01  0.2879941E-15
           4
  0.8844948E-01  0.5437520E-01  0.4976940E-01   0.9841091E+00 -0.3370857E-15  0.1775651E+00
  0.8844948E-01 -0.5437520E-01  0.4976940E-01   0.9841091E+00 -0.3370857E-15  0.1775651E+00
  0.1002657E+00 -0.5437520E-01 -0.1571907E-01   0.9841091E+00 -0.3370857E-15  0.1775651E+00
  0.1002657E+00  0.5437520E-01 -0.1571907E-01   0.9841091E+00 -0.3370857E-15  0.1775651E+00
           4
 -0.8844948E-01  0.5437520E-01 -0.4976940E-01  -0.9841091E+00 -0.1498159E-15 -0.1775651E+00
 -0.8844948E-01 -0.5437520E-01 -0.4976940E-01  -0.9841091E+00 -0.1498159E-15 -0.1775651E+00
 -0.1002657E+00 -0.5437520E-01  0.1571907E-01  -0.9841091E+00 -0.1498159E-15 -0.1775651E+00
 -0.1002657E+00  0.5437520E-01  0.1571907E-01  -0.9841091E+00 -0.1498159E-15 -0.1775651E+00
           6
  0.1002657E+00  0.5437520E-01 -0.1571907E-01  -0.0000000E+00  0.1000000E+01  0.2879941E-15
  0.8844948E-01  0.5437520E-01 -0.4976940E-01  -0.0000000E+00  0.1000000E+01  0.2879941E-15
 -0.8844948E-01  0.5437520E-01 -0.4976940E-01  -0.0000000E+00  0.1000000E+01  0.2879941E-15
 -0.1002657E+00  0.5437520E-01  0.1571907E-01  -0.0000000E+00  0.1000000E+01  0.2879941E-15
 -0.8844948E-01  0.5437520E-01  0.4976940E-01  -0.0000000E+00  0.1000000E+01  0.2879941E-15
  0.8844948E-01  0.5437520E-01  0.4976940E-01  -0.0000000E+00  0.1000000E+01  0.2879941E-15
           4
  0.8844948E-01 -0.5437520E-01  0.4976940E-01  -0.0000000E+00 -0.0000000E+00  0.1000000E+01
  0.8844948E-01  0.5437520E-01  0.4976940E-01  -0.0000000E+00 -0.0000000E+00  0.1000000E+01
 -0.8844948E-01  0.5437520E-01  0.4976940E-01  -0.0000000E+00 -0.0000000E+00  0.1000000E+01
 -0.8844948E-01 -0.5437520E-01  0.4976940E-01  -0.0000000E+00 -0.0000000E+00  0.1000000E+01
           4
 -0.1002657E+00  0.5437520E-01  0.1571907E-01  -0.9447320E+00 -0.1383046E-15  0.3278435E+00
 -0.1002657E+00 -0.5437520E-01  0.1571907E-01  -0.9447320E+00 -0.1383046E-15  0.3278435E+00
 -0.8844948E-01 -0.5437520E-01  0.4976940E-01  -0.9447320E+00 -0.1383046E-15  0.3278435E+00
 -0.8844948E-01  0.5437520E-01  0.4976940E-01  -0.9447320E+00 -0.1383046E-15  0.3278435E+00
 BRILLOUIN-ZONE-CONVCELL_END
 ATOMS
   19    0.0000000000    4.5937013140    0.0000000000    0.0000000000    0.0004628200    0.0000000000
   19    2.6494950310    0.0273066630    0.0000000000    0.0000000000   -0.0003941000    0.0000000000
   12   -0.9063419100    0.0789069410    5.0231670320    0.0000000000   -0.0004798100    0.0000000000
   12   -0.9063419100    6.0808896150    5.0231670320    0.0000000000    0.0001483400    0.0000000000
   12    1.7431531220    4.5117042870    5.0231670320    0.0000000000   -0.0005808700    0.0000000000
   12    1.7431531220    7.6791687120    5.0231670320    0.0000000000    0.0004913600    0.0000000000
   12    1.7431531220    1.6056546680    5.0231670320    0.0000000000   -0.0008251300    0.0000000000
   14    0.0502892480    1.5453320070    2.2412465460    0.0003993100   -0.0000561200   -0.0002582800
   14    3.4360168670    1.5453320070    7.8050878200   -0.0003993100   -0.0000561200    0.0002582800
   14    3.5617165120    7.6843565800    7.7384826490    0.0001397400   -0.0000009800   -0.0000508700
   14   -0.0754102690    7.6843565800    2.3078514150   -0.0001397400   -0.0000009800    0.0000508700
   14    2.5709028470    6.1350686180    2.2789509750   -0.0002714600   -0.0000309600   -0.0000943800
   14    0.9154034240    6.1350686180    7.7673829390    0.0002714600   -0.0000309600    0.0000943800
   13    0.7726802930    3.0575459870    7.7981124700   -0.0006519000   -0.0001359100    0.0005171800
   13    2.7136259510    3.0575459870    2.2482215940    0.0006519000   -0.0001359100   -0.0005171800
    8   -0.0246956580    1.5435908600    3.8769823960   -0.0006692100    0.0003103300   -0.0002896400
    8    3.5110016900    1.5435908600    6.1693519600    0.0006692100    0.0003103300    0.0002896400
    8    3.5339020430    7.6549252420    6.1216736680   -0.0002248300   -0.0003560000   -0.0001474600
    8   -0.0475957990    7.6549252420    3.9246603960    0.0002248300   -0.0003560000    0.0001474600
    8    2.6009769860    6.1388872270    3.9059546210   -0.0000128600    0.0004613500   -0.0003427000
    8    0.8853292580    6.1388872270    6.1403794430    0.0000128600    0.0004613500    0.0003427000
    8    0.8122969710    3.0644323930    6.0673142460   -0.0007522000    0.0000389500    0.0005985200
    8    2.6740092720    3.0644323930    3.9790198190    0.0007522000    0.0000389500   -0.0005985200
    8    1.5397722650    1.8655192150    1.6688014760    0.0005055100   -0.0000782200    0.0001261600
    8    1.9465340330    1.8655192150    8.3775322870   -0.0005055100   -0.0000782200   -0.0001261600
    8    4.9758795550    9.1920955580    1.7046633340    0.0000980500    0.0000345900   -0.0000344800
    8   -1.4895732840    9.1920955580    8.3416705790   -0.0000980500    0.0000345900    0.0000344800
    8    2.1259259970    7.1303474830    8.3455659150    0.0002725700   -0.0000497300   -0.0000336500
    8    1.3603802460    7.1303474830    1.7007681500   -0.0002725700   -0.0000497300    0.0000336500
    8    4.0026265790    6.7575178560    1.6887585900   -0.0004216100    0.0004568900    0.0004654600
    8   -0.5163203360    6.7575178560    8.3575754740    0.0004216100    0.0004568900   -0.0004654600
    8    2.3441863290    4.6782118700    1.6170818510    0.0001517800   -0.0003698100    0.0000894100
    8    1.1421197280    4.6782118700    8.4292523640   -0.0001517800   -0.0003698100   -0.0000894100
    8   -0.7956638270    2.5826584490    8.4578145020   -0.0003874400   -0.0002508700   -0.0003061400
    8    4.2819701490    2.5826584490    1.5885195620    0.0003874400   -0.0002508700    0.0003061400
    8   -0.0502017920    4.5617980340    3.9734757450    0.0001396000    0.0002062600    0.0009479700
    8    3.5365081150    4.5617980340    6.0728583190   -0.0001396000    0.0002062600   -0.0009479700
    8    2.6275160540    0.0023250710    3.9921896430   -0.0000925700   -0.0003872700    0.0002441200
    8    0.8587902430    0.0023250710    6.0541441200    0.0000925700   -0.0003872700   -0.0002441200
    1   -0.0992648220    4.3760866230    3.0242694720    0.0001122600    0.0003935300   -0.0003440000
    1    3.5855712250    4.3760866230    7.0220645930   -0.0001122600    0.0003935300    0.0003440000
    1    2.6052869400    0.1626712000    3.0394037530   -0.0001927700    0.0001731900   -0.0000934200
    1    0.8810193040    0.1626712000    7.0069303120    0.0001927700    0.0001731900    0.0000934200
   26   -0.9063419100    3.0632667720    5.0231670320    0.0000000000    0.0004589800    0.0000000000
   19   -1.8126838200    4.5937013140   10.0463340640    0.0000000000    0.0004628200    0.0000000000
   19    0.8368112110    0.0273066630   10.0463340640    0.0000000000   -0.0003941000    0.0000000000
   19    5.2989900630    4.5937013140    0.0000000000    0.0000000000    0.0004628200    0.0000000000
   12    4.3926481530    0.0789069410    5.0231670320    0.0000000000   -0.0004798100    0.0000000000
   12    4.3926481530    6.0808896150    5.0231670320    0.0000000000    0.0001483400    0.0000000000
   26    4.3926481530    3.0632667720    5.0231670320    0.0000000000    0.0004589800    0.0000000000
   19    3.4863062430    4.5937013140   10.0463340640    0.0000000000    0.0004628200    0.0000000000
 FRAMES
1      0.0000000000    0.0000000000    0.0000000000      5.2989900630    0.0000000000    0.0000000000
1      0.0000000000    0.0000000000    0.0000000000      0.0000000000    9.1953692500    0.0000000000
1      0.0000000000    0.0000000000    0.0000000000     -1.8126838200    0.0000000000   10.0463340640
1     -1.8126838200    0.0000000000   10.0463340640      3.4863062430    0.0000000000   10.0463340640
1     -1.8126838200    0.0000000000   10.0463340640     -1.8126838200    9.1953692500   10.0463340640
1      0.0000000000    9.1953692500    0.0000000000      5.2989900630    9.1953692500    0.0000000000
1      0.0000000000    9.1953692500    0.0000000000     -1.8126838200    9.1953692500   10.0463340640
1     -1.8126838200    9.1953692500   10.0463340640      3.4863062430    9.1953692500   10.0463340640
1      5.2989900630    0.0000000000    0.0000000000      5.2989900630    9.1953692500    0.0000000000
1      5.2989900630    0.0000000000    0.0000000000      3.4863062430    0.0000000000   10.0463340640
1      3.4863062430    0.0000000000   10.0463340640      3.4863062430    9.1953692500   10.0463340640
1      5.2989900630    9.1953692500    0.0000000000      3.4863062430    9.1953692500   10.0463340640
