 INFO
nunit      1    1    1
unit   cell
celltype   primcell
shape   parapipedal
 END_INFO
 DIM-GROUP
           3           1
 PRIMVEC
    5.2989900630    0.0000000000    0.0000000000
    0.0000000000    9.1953692500    0.0000000000
   -1.8126838200    0.0000000000   10.0463340640
 CONVVEC
    5.2989900630    0.0000000000    0.0000000000
    0.0000000000    9.1953692500    0.0000000000
   -1.8126838200    0.0000000000   10.0463340640
 PRIMCOORD
          44           1
 19      0.0000000000     4.5402608990     0.0000000000     0.0000000000     0.0006128500     0.0000000000
 19      2.6494950310     0.0272569550     0.0000000000     0.0000000000    -0.0006825800     0.0000000000
 12     -0.9063419100     3.0639758530     5.0231670320     0.0000000000     0.0004829300     0.0000000000
 12     -0.9063419100     6.1119647160     5.0231670320     0.0000000000    -0.0005469400     0.0000000000
 12      1.7431531220     4.5325405900     5.0231670320     0.0000000000    -0.0000130700     0.0000000000
 12      1.7431531220     7.6515591520     5.0231670320     0.0000000000    -0.0005958400     0.0000000000
 12      1.7431531220     1.6078605560     5.0231670320     0.0000000000    -0.0001138100     0.0000000000
 14      0.0510671350     1.5264721620     2.2170234710     0.0003357300    -0.0000289100    -0.0004586700
 14      3.4352389800     1.5264721620     7.8293108950    -0.0003357300    -0.0000289100     0.0004586700
 14      3.5460926330     7.6642717730     7.7604521290    -0.0001621300     0.0004276000     0.0002184300
 14     -0.0597863900     7.6642717730     2.2858819350     0.0001621300     0.0004276000    -0.0002184300
 14      2.5804609690     6.1278697580     2.2597098560     0.0001311400     0.0000622800     0.0004237200
 14      0.9058453010     6.1278697580     7.7866240570    -0.0001311400     0.0000622800    -0.0004237200
 13      0.7888423850     3.0455287930     7.8116283100    -0.0001109900    -0.0002026100    -0.0003176800
 13      2.6974638580     3.0455287930     2.2347057550     0.0001109900    -0.0002026100     0.0003176800
  8      0.0100216890     1.5592302120     3.8495818250    -0.0002903300    -0.0005863000    -0.0001826800
  8      3.4762843430     1.5592302120     6.1967525310     0.0002903300    -0.0005863000     0.0001826800
  8      3.5001757890     7.6093080670     6.1449487800     0.0001726200     0.0002353800     0.0001835700
  8     -0.0138695450     7.6093080670     3.9013852840    -0.0001726200     0.0002353800    -0.0001835700
  8      2.6117989580     6.1511517590     3.8853143280     0.0003790700    -0.0004915500     0.0005104300
  8      0.8745072860     6.1511517590     6.1610197360    -0.0003790700    -0.0004915500    -0.0005104300
  8      0.8160300290     3.0635797170     6.0809183220    -0.0002791600     0.0005997900    -0.0004631100
  8      2.6702762140     3.0635797170     3.9654157420     0.0002791600     0.0005997900     0.0004631100
  8      1.5300158640     1.8614596190     1.6308140200     0.0003039900    -0.0005687500    -0.0000911900
  8      1.9562904340     1.8614596190     8.4155197440    -0.0003039900    -0.0005687500     0.0000911900
  8      4.9714780420     9.1711238040     1.6940158930     0.0000466600     0.0001455700     0.0000982100
  8     -1.4851717710     9.1711238040     8.3523180210    -0.0000466600     0.0001455700    -0.0000982100
  8      2.1057676120     7.1306059770     8.3748255560     0.0000066300     0.0000536300     0.0004899400
  8      1.3805386310     7.1306059770     1.6715085080    -0.0000066300     0.0000536300    -0.0004899400
  8      4.0208040340     6.7310069180     1.6702451110     0.0001397300     0.0003245000     0.0002558900
  8     -0.5344977900     6.7310069180     8.3760889530    -0.0001397300     0.0003245000    -0.0002558900
  8      2.3358123420     4.6693388600     1.6076011540     0.0004331500     0.0001377300     0.0006490900
  8      1.1504937160     4.6693388600     8.4387330610    -0.0004331500     0.0001377300    -0.0006490900
  8     -0.7735010840     2.5468457650     8.4693833980    -0.0002502700    -0.0000778200    -0.0005781000
  8      4.2598074070     2.5468457650     1.5769506670     0.0002502700    -0.0000778200     0.0005781000
  8     -0.0186604270     4.6318612190     3.9615645590    -0.0002967400     0.0001715400     0.0003369400
  8      3.5049667490     4.6318612190     6.0847695050     0.0002967400     0.0001715400    -0.0003369400
  8      2.6033380570     9.1901545320     3.9961071060    -0.0003180600     0.0001436600    -0.0000390000
  8      0.8829682400     9.1901545320     6.0502266570     0.0003180600     0.0001436600     0.0000390000
  1     -0.0118625480     4.5481653930     3.0001169090     0.0002467700    -0.0003444900     0.0003995600
  1      3.4981689510     4.5481653930     7.0462171550    -0.0002467700    -0.0003444900    -0.0003995600
  1      2.6473226270     0.1298601250     3.0389014980     0.0007389900     0.0002691000     0.0000137300
  1      0.8389836170     0.1298601250     7.0074325660    -0.0007389900     0.0002691000    -0.0000137300
 26     -0.9063419100     0.0469903920     5.0231670320     0.0000000000     0.0003157800     0.0000000000
 CONVCOORD
          44           1
 19      0.0000000000     4.5402608990     0.0000000000
 19      2.6494950310     0.0272569550     0.0000000000
 12     -0.9063419100     3.0639758530     5.0231670320
 12     -0.9063419100     6.1119647160     5.0231670320
 12      1.7431531220     4.5325405900     5.0231670320
 12      1.7431531220     7.6515591520     5.0231670320
 12      1.7431531220     1.6078605560     5.0231670320
 14      0.0510671350     1.5264721620     2.2170234710
 14      3.4352389800     1.5264721620     7.8293108950
 14      3.5460926330     7.6642717730     7.7604521290
 14     -0.0597863900     7.6642717730     2.2858819350
 14      2.5804609690     6.1278697580     2.2597098560
 14      0.9058453010     6.1278697580     7.7866240570
 13      0.7888423850     3.0455287930     7.8116283100
 13      2.6974638580     3.0455287930     2.2347057550
  8      0.0100216890     1.5592302120     3.8495818250
  8      3.4762843430     1.5592302120     6.1967525310
  8      3.5001757890     7.6093080670     6.1449487800
  8     -0.0138695450     7.6093080670     3.9013852840
  8      2.6117989580     6.1511517590     3.8853143280
  8      0.8745072860     6.1511517590     6.1610197360
  8      0.8160300290     3.0635797170     6.0809183220
  8      2.6702762140     3.0635797170     3.9654157420
  8      1.5300158640     1.8614596190     1.6308140200
  8      1.9562904340     1.8614596190     8.4155197440
  8      4.9714780420     9.1711238040     1.6940158930
  8     -1.4851717710     9.1711238040     8.3523180210
  8      2.1057676120     7.1306059770     8.3748255560
  8      1.3805386310     7.1306059770     1.6715085080
  8      4.0208040340     6.7310069180     1.6702451110
  8     -0.5344977900     6.7310069180     8.3760889530
  8      2.3358123420     4.6693388600     1.6076011540
  8      1.1504937160     4.6693388600     8.4387330610
  8     -0.7735010840     2.5468457650     8.4693833980
  8      4.2598074070     2.5468457650     1.5769506670
  8     -0.0186604270     4.6318612190     3.9615645590
  8      3.5049667490     4.6318612190     6.0847695050
  8      2.6033380570     9.1901545320     3.9961071060
  8      0.8829682400     9.1901545320     6.0502266570
  1     -0.0118625480     4.5481653930     3.0001169090
  1      3.4981689510     4.5481653930     7.0462171550
  1      2.6473226270     0.1298601250     3.0389014980
  1      0.8389836170     0.1298601250     7.0074325660
 26     -0.9063419100     0.0469903920     5.0231670320
 RECIP-PRIMVEC
    0.1887152057   -0.0000000000    0.0340503310

    0.0000000000    0.1087503909   -0.0000000000

    0.0000000000    0.0000000000    0.0995387963

 RECIP-CONVVEC
    0.1887152057   -0.0000000000    0.0340503310

    0.0000000000    0.1087503909   -0.0000000000

    0.0000000000    0.0000000000    0.0995387963

 WIGNER-SEITZ-PRIMCELL
           4
 -0.2649495E+01  0.4597685E+01 -0.4708646E+01  -0.3278435E+00 -0.1009766E-15 -0.9447320E+00
 -0.8368112E+00  0.4597685E+01 -0.5337688E+01  -0.3278435E+00 -0.1009766E-15 -0.9447320E+00
 -0.8368112E+00 -0.4597685E+01 -0.5337688E+01  -0.3278435E+00 -0.1009766E-15 -0.9447320E+00
 -0.2649495E+01 -0.4597685E+01 -0.4708646E+01  -0.3278435E+00 -0.1009766E-15 -0.9447320E+00
           4
 -0.2649495E+01  0.4597685E+01 -0.4708646E+01  -0.1000000E+01  0.4829488E-16  0.4554862E-32
 -0.2649495E+01 -0.4597685E+01 -0.4708646E+01  -0.1000000E+01  0.4829488E-16  0.4554862E-32
 -0.2649495E+01 -0.4597685E+01  0.4708646E+01  -0.1000000E+01  0.4829488E-16  0.4554862E-32
 -0.2649495E+01  0.4597685E+01  0.4708646E+01  -0.1000000E+01  0.4829488E-16  0.4554862E-32
           6
  0.2649495E+01 -0.4597685E+01  0.4708646E+01  -0.0000000E+00 -0.1000000E+01  0.1065828E-14
  0.8368112E+00 -0.4597685E+01  0.5337688E+01  -0.0000000E+00 -0.1000000E+01  0.1065828E-14
 -0.2649495E+01 -0.4597685E+01  0.4708646E+01  -0.0000000E+00 -0.1000000E+01  0.1065828E-14
 -0.2649495E+01 -0.4597685E+01 -0.4708646E+01  -0.0000000E+00 -0.1000000E+01  0.1065828E-14
 -0.8368112E+00 -0.4597685E+01 -0.5337688E+01  -0.0000000E+00 -0.1000000E+01  0.1065828E-14
  0.2649495E+01 -0.4597685E+01 -0.4708646E+01  -0.0000000E+00 -0.1000000E+01  0.1065828E-14
           4
  0.2649495E+01 -0.4597685E+01 -0.4708646E+01   0.1775651E+00 -0.2181216E-15 -0.9841091E+00
 -0.8368112E+00 -0.4597685E+01 -0.5337688E+01   0.1775651E+00 -0.2181216E-15 -0.9841091E+00
 -0.8368112E+00  0.4597685E+01 -0.5337688E+01   0.1775651E+00 -0.2181216E-15 -0.9841091E+00
  0.2649495E+01  0.4597685E+01 -0.4708646E+01   0.1775651E+00 -0.2181216E-15 -0.9841091E+00
           4
 -0.2649495E+01  0.4597685E+01  0.4708646E+01  -0.1775651E+00 -0.0000000E+00  0.9841091E+00
 -0.2649495E+01 -0.4597685E+01  0.4708646E+01  -0.1775651E+00 -0.0000000E+00  0.9841091E+00
  0.8368112E+00 -0.4597685E+01  0.5337688E+01  -0.1775651E+00 -0.0000000E+00  0.9841091E+00
  0.8368112E+00  0.4597685E+01  0.5337688E+01  -0.1775651E+00 -0.0000000E+00  0.9841091E+00
           6
  0.2649495E+01  0.4597685E+01 -0.4708646E+01   0.0000000E+00  0.1000000E+01  0.1065828E-14
 -0.8368112E+00  0.4597685E+01 -0.5337688E+01   0.0000000E+00  0.1000000E+01  0.1065828E-14
 -0.2649495E+01  0.4597685E+01 -0.4708646E+01   0.0000000E+00  0.1000000E+01  0.1065828E-14
 -0.2649495E+01  0.4597685E+01  0.4708646E+01   0.0000000E+00  0.1000000E+01  0.1065828E-14
  0.8368112E+00  0.4597685E+01  0.5337688E+01   0.0000000E+00  0.1000000E+01  0.1065828E-14
  0.2649495E+01  0.4597685E+01  0.4708646E+01   0.0000000E+00  0.1000000E+01  0.1065828E-14
           4
  0.2649495E+01  0.4597685E+01  0.4708646E+01   0.1000000E+01 -0.4829488E-16  0.0000000E+00
  0.2649495E+01 -0.4597685E+01  0.4708646E+01   0.1000000E+01 -0.4829488E-16  0.0000000E+00
  0.2649495E+01 -0.4597685E+01 -0.4708646E+01   0.1000000E+01 -0.4829488E-16  0.0000000E+00
  0.2649495E+01  0.4597685E+01 -0.4708646E+01   0.1000000E+01 -0.4829488E-16  0.0000000E+00
           4
  0.8368112E+00 -0.4597685E+01  0.5337688E+01   0.3278435E+00  0.3334111E-16  0.9447320E+00
  0.2649495E+01 -0.4597685E+01  0.4708646E+01   0.3278435E+00  0.3334111E-16  0.9447320E+00
  0.2649495E+01  0.4597685E+01  0.4708646E+01   0.3278435E+00  0.3334111E-16  0.9447320E+00
  0.8368112E+00  0.4597685E+01  0.5337688E+01   0.3278435E+00  0.3334111E-16  0.9447320E+00
 WIGNER-SEITZ-PRIMCELL_END
 WIGNER-SEITZ-CONVCELL
           4
 -0.2649495E+01  0.4597685E+01 -0.4708646E+01  -0.3278435E+00 -0.1009766E-15 -0.9447320E+00
 -0.8368112E+00  0.4597685E+01 -0.5337688E+01  -0.3278435E+00 -0.1009766E-15 -0.9447320E+00
 -0.8368112E+00 -0.4597685E+01 -0.5337688E+01  -0.3278435E+00 -0.1009766E-15 -0.9447320E+00
 -0.2649495E+01 -0.4597685E+01 -0.4708646E+01  -0.3278435E+00 -0.1009766E-15 -0.9447320E+00
           4
 -0.2649495E+01  0.4597685E+01 -0.4708646E+01  -0.1000000E+01  0.4829488E-16  0.4554862E-32
 -0.2649495E+01 -0.4597685E+01 -0.4708646E+01  -0.1000000E+01  0.4829488E-16  0.4554862E-32
 -0.2649495E+01 -0.4597685E+01  0.4708646E+01  -0.1000000E+01  0.4829488E-16  0.4554862E-32
 -0.2649495E+01  0.4597685E+01  0.4708646E+01  -0.1000000E+01  0.4829488E-16  0.4554862E-32
           6
  0.2649495E+01 -0.4597685E+01  0.4708646E+01  -0.0000000E+00 -0.1000000E+01  0.1065828E-14
  0.8368112E+00 -0.4597685E+01  0.5337688E+01  -0.0000000E+00 -0.1000000E+01  0.1065828E-14
 -0.2649495E+01 -0.4597685E+01  0.4708646E+01  -0.0000000E+00 -0.1000000E+01  0.1065828E-14
 -0.2649495E+01 -0.4597685E+01 -0.4708646E+01  -0.0000000E+00 -0.1000000E+01  0.1065828E-14
 -0.8368112E+00 -0.4597685E+01 -0.5337688E+01  -0.0000000E+00 -0.1000000E+01  0.1065828E-14
  0.2649495E+01 -0.4597685E+01 -0.4708646E+01  -0.0000000E+00 -0.1000000E+01  0.1065828E-14
           4
  0.2649495E+01 -0.4597685E+01 -0.4708646E+01   0.1775651E+00 -0.2181216E-15 -0.9841091E+00
 -0.8368112E+00 -0.4597685E+01 -0.5337688E+01   0.1775651E+00 -0.2181216E-15 -0.9841091E+00
 -0.8368112E+00  0.4597685E+01 -0.5337688E+01   0.1775651E+00 -0.2181216E-15 -0.9841091E+00
  0.2649495E+01  0.4597685E+01 -0.4708646E+01   0.1775651E+00 -0.2181216E-15 -0.9841091E+00
           4
 -0.2649495E+01  0.4597685E+01  0.4708646E+01  -0.1775651E+00 -0.0000000E+00  0.9841091E+00
 -0.2649495E+01 -0.4597685E+01  0.4708646E+01  -0.1775651E+00 -0.0000000E+00  0.9841091E+00
  0.8368112E+00 -0.4597685E+01  0.5337688E+01  -0.1775651E+00 -0.0000000E+00  0.9841091E+00
  0.8368112E+00  0.4597685E+01  0.5337688E+01  -0.1775651E+00 -0.0000000E+00  0.9841091E+00
           6
  0.2649495E+01  0.4597685E+01 -0.4708646E+01   0.0000000E+00  0.1000000E+01  0.1065828E-14
 -0.8368112E+00  0.4597685E+01 -0.5337688E+01   0.0000000E+00  0.1000000E+01  0.1065828E-14
 -0.2649495E+01  0.4597685E+01 -0.4708646E+01   0.0000000E+00  0.1000000E+01  0.1065828E-14
 -0.2649495E+01  0.4597685E+01  0.4708646E+01   0.0000000E+00  0.1000000E+01  0.1065828E-14
  0.8368112E+00  0.4597685E+01  0.5337688E+01   0.0000000E+00  0.1000000E+01  0.1065828E-14
  0.2649495E+01  0.4597685E+01  0.4708646E+01   0.0000000E+00  0.1000000E+01  0.1065828E-14
           4
  0.2649495E+01  0.4597685E+01  0.4708646E+01   0.1000000E+01 -0.4829488E-16  0.0000000E+00
  0.2649495E+01 -0.4597685E+01  0.4708646E+01   0.1000000E+01 -0.4829488E-16  0.0000000E+00
  0.2649495E+01 -0.4597685E+01 -0.4708646E+01   0.1000000E+01 -0.4829488E-16  0.0000000E+00
  0.2649495E+01  0.4597685E+01 -0.4708646E+01   0.1000000E+01 -0.4829488E-16  0.0000000E+00
           4
  0.8368112E+00 -0.4597685E+01  0.5337688E+01   0.3278435E+00  0.3334111E-16  0.9447320E+00
  0.2649495E+01 -0.4597685E+01  0.4708646E+01   0.3278435E+00  0.3334111E-16  0.9447320E+00
  0.2649495E+01  0.4597685E+01  0.4708646E+01   0.3278435E+00  0.3334111E-16  0.9447320E+00
  0.8368112E+00  0.4597685E+01  0.5337688E+01   0.3278435E+00  0.3334111E-16  0.9447320E+00
 WIGNER-SEITZ-CONVCELL_END
 BRILLOUIN-ZONE-PRIMCELL
           4
  0.1002657E+00  0.5437520E-01 -0.1571907E-01   0.9447320E+00  0.5532186E-16 -0.3278435E+00
  0.1002657E+00 -0.5437520E-01 -0.1571907E-01   0.9447320E+00  0.5532186E-16 -0.3278435E+00
  0.8844948E-01 -0.5437520E-01 -0.4976940E-01   0.9447320E+00  0.5532186E-16 -0.3278435E+00
  0.8844948E-01  0.5437520E-01 -0.4976940E-01   0.9447320E+00  0.5532186E-16 -0.3278435E+00
           4
 -0.8844948E-01  0.5437520E-01 -0.4976940E-01   0.0000000E+00 -0.5426985E-16 -0.1000000E+01
  0.8844948E-01  0.5437520E-01 -0.4976940E-01   0.0000000E+00 -0.5426985E-16 -0.1000000E+01
  0.8844948E-01 -0.5437520E-01 -0.4976940E-01   0.0000000E+00 -0.5426985E-16 -0.1000000E+01
 -0.8844948E-01 -0.5437520E-01 -0.4976940E-01   0.0000000E+00 -0.5426985E-16 -0.1000000E+01
           6
  0.8844948E-01 -0.5437520E-01  0.4976940E-01   0.0000000E+00 -0.1000000E+01  0.2879941E-15
 -0.8844948E-01 -0.5437520E-01  0.4976940E-01   0.0000000E+00 -0.1000000E+01  0.2879941E-15
 -0.1002657E+00 -0.5437520E-01  0.1571907E-01   0.0000000E+00 -0.1000000E+01  0.2879941E-15
 -0.8844948E-01 -0.5437520E-01 -0.4976940E-01   0.0000000E+00 -0.1000000E+01  0.2879941E-15
  0.8844948E-01 -0.5437520E-01 -0.4976940E-01   0.0000000E+00 -0.1000000E+01  0.2879941E-15
  0.1002657E+00 -0.5437520E-01 -0.1571907E-01   0.0000000E+00 -0.1000000E+01  0.2879941E-15
           4
  0.8844948E-01  0.5437520E-01  0.4976940E-01   0.9841091E+00 -0.3370857E-15  0.1775651E+00
  0.8844948E-01 -0.5437520E-01  0.4976940E-01   0.9841091E+00 -0.3370857E-15  0.1775651E+00
  0.1002657E+00 -0.5437520E-01 -0.1571907E-01   0.9841091E+00 -0.3370857E-15  0.1775651E+00
  0.1002657E+00  0.5437520E-01 -0.1571907E-01   0.9841091E+00 -0.3370857E-15  0.1775651E+00
           4
 -0.8844948E-01  0.5437520E-01 -0.4976940E-01  -0.9841091E+00 -0.1498159E-15 -0.1775651E+00
 -0.8844948E-01 -0.5437520E-01 -0.4976940E-01  -0.9841091E+00 -0.1498159E-15 -0.1775651E+00
 -0.1002657E+00 -0.5437520E-01  0.1571907E-01  -0.9841091E+00 -0.1498159E-15 -0.1775651E+00
 -0.1002657E+00  0.5437520E-01  0.1571907E-01  -0.9841091E+00 -0.1498159E-15 -0.1775651E+00
           6
  0.1002657E+00  0.5437520E-01 -0.1571907E-01  -0.0000000E+00  0.1000000E+01  0.2879941E-15
  0.8844948E-01  0.5437520E-01 -0.4976940E-01  -0.0000000E+00  0.1000000E+01  0.2879941E-15
 -0.8844948E-01  0.5437520E-01 -0.4976940E-01  -0.0000000E+00  0.1000000E+01  0.2879941E-15
 -0.1002657E+00  0.5437520E-01  0.1571907E-01  -0.0000000E+00  0.1000000E+01  0.2879941E-15
 -0.8844948E-01  0.5437520E-01  0.4976940E-01  -0.0000000E+00  0.1000000E+01  0.2879941E-15
  0.8844948E-01  0.5437520E-01  0.4976940E-01  -0.0000000E+00  0.1000000E+01  0.2879941E-15
           4
  0.8844948E-01 -0.5437520E-01  0.4976940E-01  -0.0000000E+00 -0.0000000E+00  0.1000000E+01
  0.8844948E-01  0.5437520E-01  0.4976940E-01  -0.0000000E+00 -0.0000000E+00  0.1000000E+01
 -0.8844948E-01  0.5437520E-01  0.4976940E-01  -0.0000000E+00 -0.0000000E+00  0.1000000E+01
 -0.8844948E-01 -0.5437520E-01  0.4976940E-01  -0.0000000E+00 -0.0000000E+00  0.1000000E+01
           4
 -0.1002657E+00  0.5437520E-01  0.1571907E-01  -0.9447320E+00 -0.1383046E-15  0.3278435E+00
 -0.1002657E+00 -0.5437520E-01  0.1571907E-01  -0.9447320E+00 -0.1383046E-15  0.3278435E+00
 -0.8844948E-01 -0.5437520E-01  0.4976940E-01  -0.9447320E+00 -0.1383046E-15  0.3278435E+00
 -0.8844948E-01  0.5437520E-01  0.4976940E-01  -0.9447320E+00 -0.1383046E-15  0.3278435E+00
 BRILLOUIN-ZONE-PRIMCELL_END
 BRILLOUIN-ZONE-CONVCELL
           4
  0.1002657E+00  0.5437520E-01 -0.1571907E-01   0.9447320E+00  0.5532186E-16 -0.3278435E+00
  0.1002657E+00 -0.5437520E-01 -0.1571907E-01   0.9447320E+00  0.5532186E-16 -0.3278435E+00
  0.8844948E-01 -0.5437520E-01 -0.4976940E-01   0.9447320E+00  0.5532186E-16 -0.3278435E+00
  0.8844948E-01  0.5437520E-01 -0.4976940E-01   0.9447320E+00  0.5532186E-16 -0.3278435E+00
           4
 -0.8844948E-01  0.5437520E-01 -0.4976940E-01   0.0000000E+00 -0.5426985E-16 -0.1000000E+01
  0.8844948E-01  0.5437520E-01 -0.4976940E-01   0.0000000E+00 -0.5426985E-16 -0.1000000E+01
  0.8844948E-01 -0.5437520E-01 -0.4976940E-01   0.0000000E+00 -0.5426985E-16 -0.1000000E+01
 -0.8844948E-01 -0.5437520E-01 -0.4976940E-01   0.0000000E+00 -0.5426985E-16 -0.1000000E+01
           6
  0.8844948E-01 -0.5437520E-01  0.4976940E-01   0.0000000E+00 -0.1000000E+01  0.2879941E-15
 -0.8844948E-01 -0.5437520E-01  0.4976940E-01   0.0000000E+00 -0.1000000E+01  0.2879941E-15
 -0.1002657E+00 -0.5437520E-01  0.1571907E-01   0.0000000E+00 -0.1000000E+01  0.2879941E-15
 -0.8844948E-01 -0.5437520E-01 -0.4976940E-01   0.0000000E+00 -0.1000000E+01  0.2879941E-15
  0.8844948E-01 -0.5437520E-01 -0.4976940E-01   0.0000000E+00 -0.1000000E+01  0.2879941E-15
  0.1002657E+00 -0.5437520E-01 -0.1571907E-01   0.0000000E+00 -0.1000000E+01  0.2879941E-15
           4
  0.8844948E-01  0.5437520E-01  0.4976940E-01   0.9841091E+00 -0.3370857E-15  0.1775651E+00
  0.8844948E-01 -0.5437520E-01  0.4976940E-01   0.9841091E+00 -0.3370857E-15  0.1775651E+00
  0.1002657E+00 -0.5437520E-01 -0.1571907E-01   0.9841091E+00 -0.3370857E-15  0.1775651E+00
  0.1002657E+00  0.5437520E-01 -0.1571907E-01   0.9841091E+00 -0.3370857E-15  0.1775651E+00
           4
 -0.8844948E-01  0.5437520E-01 -0.4976940E-01  -0.9841091E+00 -0.1498159E-15 -0.1775651E+00
 -0.8844948E-01 -0.5437520E-01 -0.4976940E-01  -0.9841091E+00 -0.1498159E-15 -0.1775651E+00
 -0.1002657E+00 -0.5437520E-01  0.1571907E-01  -0.9841091E+00 -0.1498159E-15 -0.1775651E+00
 -0.1002657E+00  0.5437520E-01  0.1571907E-01  -0.9841091E+00 -0.1498159E-15 -0.1775651E+00
           6
  0.1002657E+00  0.5437520E-01 -0.1571907E-01  -0.0000000E+00  0.1000000E+01  0.2879941E-15
  0.8844948E-01  0.5437520E-01 -0.4976940E-01  -0.0000000E+00  0.1000000E+01  0.2879941E-15
 -0.8844948E-01  0.5437520E-01 -0.4976940E-01  -0.0000000E+00  0.1000000E+01  0.2879941E-15
 -0.1002657E+00  0.5437520E-01  0.1571907E-01  -0.0000000E+00  0.1000000E+01  0.2879941E-15
 -0.8844948E-01  0.5437520E-01  0.4976940E-01  -0.0000000E+00  0.1000000E+01  0.2879941E-15
  0.8844948E-01  0.5437520E-01  0.4976940E-01  -0.0000000E+00  0.1000000E+01  0.2879941E-15
           4
  0.8844948E-01 -0.5437520E-01  0.4976940E-01  -0.0000000E+00 -0.0000000E+00  0.1000000E+01
  0.8844948E-01  0.5437520E-01  0.4976940E-01  -0.0000000E+00 -0.0000000E+00  0.1000000E+01
 -0.8844948E-01  0.5437520E-01  0.4976940E-01  -0.0000000E+00 -0.0000000E+00  0.1000000E+01
 -0.8844948E-01 -0.5437520E-01  0.4976940E-01  -0.0000000E+00 -0.0000000E+00  0.1000000E+01
           4
 -0.1002657E+00  0.5437520E-01  0.1571907E-01  -0.9447320E+00 -0.1383046E-15  0.3278435E+00
 -0.1002657E+00 -0.5437520E-01  0.1571907E-01  -0.9447320E+00 -0.1383046E-15  0.3278435E+00
 -0.8844948E-01 -0.5437520E-01  0.4976940E-01  -0.9447320E+00 -0.1383046E-15  0.3278435E+00
 -0.8844948E-01  0.5437520E-01  0.4976940E-01  -0.9447320E+00 -0.1383046E-15  0.3278435E+00
 BRILLOUIN-ZONE-CONVCELL_END
 ATOMS
   19    0.0000000000    4.5402608990    0.0000000000    0.0000000000    0.0006128500    0.0000000000
   19    2.6494950310    0.0272569550    0.0000000000    0.0000000000   -0.0006825800    0.0000000000
   12   -0.9063419100    3.0639758530    5.0231670320    0.0000000000    0.0004829300    0.0000000000
   12   -0.9063419100    6.1119647160    5.0231670320    0.0000000000   -0.0005469400    0.0000000000
   12    1.7431531220    4.5325405900    5.0231670320    0.0000000000   -0.0000130700    0.0000000000
   12    1.7431531220    7.6515591520    5.0231670320    0.0000000000   -0.0005958400    0.0000000000
   12    1.7431531220    1.6078605560    5.0231670320    0.0000000000   -0.0001138100    0.0000000000
   14    0.0510671350    1.5264721620    2.2170234710    0.0003357300   -0.0000289100   -0.0004586700
   14    3.4352389800    1.5264721620    7.8293108950   -0.0003357300   -0.0000289100    0.0004586700
   14    3.5460926330    7.6642717730    7.7604521290   -0.0001621300    0.0004276000    0.0002184300
   14   -0.0597863900    7.6642717730    2.2858819350    0.0001621300    0.0004276000   -0.0002184300
   14    2.5804609690    6.1278697580    2.2597098560    0.0001311400    0.0000622800    0.0004237200
   14    0.9058453010    6.1278697580    7.7866240570   -0.0001311400    0.0000622800   -0.0004237200
   13    0.7888423850    3.0455287930    7.8116283100   -0.0001109900   -0.0002026100   -0.0003176800
   13    2.6974638580    3.0455287930    2.2347057550    0.0001109900   -0.0002026100    0.0003176800
    8    0.0100216890    1.5592302120    3.8495818250   -0.0002903300   -0.0005863000   -0.0001826800
    8    3.4762843430    1.5592302120    6.1967525310    0.0002903300   -0.0005863000    0.0001826800
    8    3.5001757890    7.6093080670    6.1449487800    0.0001726200    0.0002353800    0.0001835700
    8   -0.0138695450    7.6093080670    3.9013852840   -0.0001726200    0.0002353800   -0.0001835700
    8    2.6117989580    6.1511517590    3.8853143280    0.0003790700   -0.0004915500    0.0005104300
    8    0.8745072860    6.1511517590    6.1610197360   -0.0003790700   -0.0004915500   -0.0005104300
    8    0.8160300290    3.0635797170    6.0809183220   -0.0002791600    0.0005997900   -0.0004631100
    8    2.6702762140    3.0635797170    3.9654157420    0.0002791600    0.0005997900    0.0004631100
    8    1.5300158640    1.8614596190    1.6308140200    0.0003039900   -0.0005687500   -0.0000911900
    8    1.9562904340    1.8614596190    8.4155197440   -0.0003039900   -0.0005687500    0.0000911900
    8    4.9714780420    9.1711238040    1.6940158930    0.0000466600    0.0001455700    0.0000982100
    8   -1.4851717710    9.1711238040    8.3523180210   -0.0000466600    0.0001455700   -0.0000982100
    8    2.1057676120    7.1306059770    8.3748255560    0.0000066300    0.0000536300    0.0004899400
    8    1.3805386310    7.1306059770    1.6715085080   -0.0000066300    0.0000536300   -0.0004899400
    8    4.0208040340    6.7310069180    1.6702451110    0.0001397300    0.0003245000    0.0002558900
    8   -0.5344977900    6.7310069180    8.3760889530   -0.0001397300    0.0003245000   -0.0002558900
    8    2.3358123420    4.6693388600    1.6076011540    0.0004331500    0.0001377300    0.0006490900
    8    1.1504937160    4.6693388600    8.4387330610   -0.0004331500    0.0001377300   -0.0006490900
    8   -0.7735010840    2.5468457650    8.4693833980   -0.0002502700   -0.0000778200   -0.0005781000
    8    4.2598074070    2.5468457650    1.5769506670    0.0002502700   -0.0000778200    0.0005781000
    8   -0.0186604270    4.6318612190    3.9615645590   -0.0002967400    0.0001715400    0.0003369400
    8    3.5049667490    4.6318612190    6.0847695050    0.0002967400    0.0001715400   -0.0003369400
    8    2.6033380570    9.1901545320    3.9961071060   -0.0003180600    0.0001436600   -0.0000390000
    8    0.8829682400    9.1901545320    6.0502266570    0.0003180600    0.0001436600    0.0000390000
    1   -0.0118625480    4.5481653930    3.0001169090    0.0002467700   -0.0003444900    0.0003995600
    1    3.4981689510    4.5481653930    7.0462171550   -0.0002467700   -0.0003444900   -0.0003995600
    1    2.6473226270    0.1298601250    3.0389014980    0.0007389900    0.0002691000    0.0000137300
    1    0.8389836170    0.1298601250    7.0074325660   -0.0007389900    0.0002691000   -0.0000137300
   26   -0.9063419100    0.0469903920    5.0231670320    0.0000000000    0.0003157800    0.0000000000
   19   -1.8126838200    4.5402608990   10.0463340640    0.0000000000    0.0006128500    0.0000000000
   19    0.8368112110    0.0272569550   10.0463340640    0.0000000000   -0.0006825800    0.0000000000
   19    5.2989900630    4.5402608990    0.0000000000    0.0000000000    0.0006128500    0.0000000000
   12    4.3926481530    3.0639758530    5.0231670320    0.0000000000    0.0004829300    0.0000000000
   12    4.3926481530    6.1119647160    5.0231670320    0.0000000000   -0.0005469400    0.0000000000
   26    4.3926481530    0.0469903920    5.0231670320    0.0000000000    0.0003157800    0.0000000000
   19    3.4863062430    4.5402608990   10.0463340640    0.0000000000    0.0006128500    0.0000000000
 FRAMES
1      0.0000000000    0.0000000000    0.0000000000      5.2989900630    0.0000000000    0.0000000000
1      0.0000000000    0.0000000000    0.0000000000      0.0000000000    9.1953692500    0.0000000000
1      0.0000000000    0.0000000000    0.0000000000     -1.8126838200    0.0000000000   10.0463340640
1     -1.8126838200    0.0000000000   10.0463340640      3.4863062430    0.0000000000   10.0463340640
1     -1.8126838200    0.0000000000   10.0463340640     -1.8126838200    9.1953692500   10.0463340640
1      0.0000000000    9.1953692500    0.0000000000      5.2989900630    9.1953692500    0.0000000000
1      0.0000000000    9.1953692500    0.0000000000     -1.8126838200    9.1953692500   10.0463340640
1     -1.8126838200    9.1953692500   10.0463340640      3.4863062430    9.1953692500   10.0463340640
1      5.2989900630    0.0000000000    0.0000000000      5.2989900630    9.1953692500    0.0000000000
1      5.2989900630    0.0000000000    0.0000000000      3.4863062430    0.0000000000   10.0463340640
1      3.4863062430    0.0000000000   10.0463340640      3.4863062430    9.1953692500   10.0463340640
1      5.2989900630    9.1953692500    0.0000000000      3.4863062430    9.1953692500   10.0463340640
