 INFO
nunit      1    1    1
unit   cell
celltype   primcell
shape   parapipedal
 END_INFO
 DIM-GROUP
           3           1
 PRIMVEC
    5.2939295270    0.0000000000    0.0000000000
    0.0000000000    9.1904199940    0.0000000000
   -1.8133673890    0.0000000000   10.0484006710
 CONVVEC
    5.2939295270    0.0000000000    0.0000000000
    0.0000000000    9.1904199940    0.0000000000
   -1.8133673890    0.0000000000   10.0484006710
 PRIMCOORD
          44           1
 19      0.0000000000     4.5642048690     0.0000000000     0.0000000000     0.0004432200     0.0000000000
 19      2.6469657200     0.0136677610     0.0000000000     0.0000000000    -0.0004591700     0.0000000000
 12     -0.9066833200     0.0388106030     5.0242003340     0.0000000000     0.0002413600     0.0000000000
 12     -0.9066833200     3.0631837240     5.0242003340     0.0000000000    -0.0000710500     0.0000000000
 12     -0.9066833200     6.1112517120     5.0242003340     0.0000000000    -0.0001093000     0.0000000000
 12      1.7402824000     4.5337415660     5.0242003340     0.0000000000    -0.0000671500     0.0000000000
 12      1.7402824000     7.6740394160     5.0242003340     0.0000000000    -0.0000893200     0.0000000000
 12      1.7402824000     1.5807285730     5.0242003340     0.0000000000     0.0001849500     0.0000000000
 14      0.0375577750     1.5161622810     2.2387677830     0.0000256000    -0.0000930800    -0.0001894500
 14      3.4430069870     1.5161622810     7.8096333390    -0.0000256000    -0.0000930800     0.0001894500
 14      3.5478558940     7.6673894320     7.7473932140     0.0000973500     0.0000473300     0.0003186100
 14     -0.0672910570     7.6673894320     2.3010074550    -0.0000973500     0.0000473300    -0.0003186100
 14      2.5760275920     6.1248382600     2.2807416400    -0.0000627300     0.0000923500    -0.0003327600
 14      0.9045371100     6.1248382600     7.7676587270     0.0000627300     0.0000923500     0.0003327600
 13      0.7919899340     3.0416191890     7.7913826780    -0.0001677400    -0.0001921200     0.0003129600
 13      2.6885748930     3.0416191890     2.2570178410     0.0001677400    -0.0001921200    -0.0003129600
  8     -0.0247855650     1.5030324150     3.8694820960     0.0000957800    -0.0000102000    -0.0001352000
  8      3.5053502390     1.5030324150     6.1789188640    -0.0000957800    -0.0000102000     0.0001352000
  8      3.5230891120     7.6561710540     6.1301822710    -0.0000093100    -0.0000324400     0.0000015000
  8     -0.0425241780     7.6561710540     3.9182180970     0.0000093100    -0.0000324400    -0.0000015000
  8      2.6066326310     6.1498230280     3.9048459410    -0.0001181200    -0.0000298700    -0.0000613300
  8      0.8739320110     6.1498230280     6.1435547280     0.0001181200    -0.0000298700     0.0000613300
  8      0.8170098080     3.0603010500     6.0642834150     0.0001292500     0.0000079200     0.0001288200
  8      2.6635548340     3.0603010500     3.9841172540    -0.0001292500     0.0000079200    -0.0001288200
  8      1.5229675480     1.8507662050     1.6667990550     0.0002136000    -0.0001422000     0.0002401300
  8      1.9575974660     1.8507662050     8.3816013120    -0.0002136000    -0.0001422000    -0.0002401300
  8      4.9542562140     9.1642148120     1.6860364210    -0.0000414300     0.0001966400     0.0001772500
  8     -1.4736914920     9.1642148120     8.3623640980     0.0000414300     0.0001966400    -0.0001772500
  8      2.1009224090     7.1358306510     8.3500669180     0.0001758500    -0.0001892300    -0.0002533900
  8      1.3796423920     7.1358306510     1.6983337510    -0.0001758500    -0.0001892300     0.0002533900
  8      4.0219720530     6.7133331350     1.6876053620     0.0000151500     0.0000394100     0.0001847500
  8     -0.5414073860     6.7133331350     8.3607956090    -0.0000151500     0.0000394100    -0.0001847500
  8      2.3232282990     4.6659743400     1.6307650050    -0.0000656900    -0.0000785700     0.0002761700
  8      1.1573364220     4.6659743400     8.4176361060     0.0000656900    -0.0000785700    -0.0002761700
  8     -0.7731294280     2.5522433290     8.4467035810    -0.0004220200     0.0003136600    -0.0001678300
  8      4.2536942810     2.5522433290     1.6016972390     0.0004220200     0.0003136600     0.0001678300
  8     -0.0240675930     4.6338296730     3.9538253770    -0.0000431400     0.0000279500    -0.0001767600
  8      3.5046324680     4.6338296730     6.0945752920     0.0000431400     0.0000279500     0.0001767600
  8      2.6279022430     9.1841887030     3.9884149620     0.0000078300    -0.0000382900     0.0001409500
  8      0.8526627710     9.1841887030     6.0599854060    -0.0000078300    -0.0000382900    -0.0001409500
  1     -0.0177125760     4.5363460850     2.9940117910    -0.0000439100    -0.0003607500     0.0003769300
  1      3.4982775360     4.5363460850     7.0543888780     0.0000439100    -0.0003607500    -0.0003769300
  1      2.6023324060     0.1487166640     3.0355234280    -0.0001490600     0.0004047200     0.0000025100
  1      0.8782326010     0.1487166640     7.0128769500     0.0001490600     0.0004047200    -0.0000025100
 CONVCOORD
          44           1
 19      0.0000000000     4.5642048690     0.0000000000
 19      2.6469657200     0.0136677610     0.0000000000
 12     -0.9066833200     0.0388106030     5.0242003340
 12     -0.9066833200     3.0631837240     5.0242003340
 12     -0.9066833200     6.1112517120     5.0242003340
 12      1.7402824000     4.5337415660     5.0242003340
 12      1.7402824000     7.6740394160     5.0242003340
 12      1.7402824000     1.5807285730     5.0242003340
 14      0.0375577750     1.5161622810     2.2387677830
 14      3.4430069870     1.5161622810     7.8096333390
 14      3.5478558940     7.6673894320     7.7473932140
 14     -0.0672910570     7.6673894320     2.3010074550
 14      2.5760275920     6.1248382600     2.2807416400
 14      0.9045371100     6.1248382600     7.7676587270
 13      0.7919899340     3.0416191890     7.7913826780
 13      2.6885748930     3.0416191890     2.2570178410
  8     -0.0247855650     1.5030324150     3.8694820960
  8      3.5053502390     1.5030324150     6.1789188640
  8      3.5230891120     7.6561710540     6.1301822710
  8     -0.0425241780     7.6561710540     3.9182180970
  8      2.6066326310     6.1498230280     3.9048459410
  8      0.8739320110     6.1498230280     6.1435547280
  8      0.8170098080     3.0603010500     6.0642834150
  8      2.6635548340     3.0603010500     3.9841172540
  8      1.5229675480     1.8507662050     1.6667990550
  8      1.9575974660     1.8507662050     8.3816013120
  8      4.9542562140     9.1642148120     1.6860364210
  8     -1.4736914920     9.1642148120     8.3623640980
  8      2.1009224090     7.1358306510     8.3500669180
  8      1.3796423920     7.1358306510     1.6983337510
  8      4.0219720530     6.7133331350     1.6876053620
  8     -0.5414073860     6.7133331350     8.3607956090
  8      2.3232282990     4.6659743400     1.6307650050
  8      1.1573364220     4.6659743400     8.4176361060
  8     -0.7731294280     2.5522433290     8.4467035810
  8      4.2536942810     2.5522433290     1.6016972390
  8     -0.0240675930     4.6338296730     3.9538253770
  8      3.5046324680     4.6338296730     6.0945752920
  8      2.6279022430     9.1841887030     3.9884149620
  8      0.8526627710     9.1841887030     6.0599854060
  1     -0.0177125760     4.5363460850     2.9940117910
  1      3.4982775360     4.5363460850     7.0543888780
  1      2.6023324060     0.1487166640     3.0355234280
  1      0.8782326010     0.1487166640     7.0128769500
 RECIP-PRIMVEC
    0.1888956011   -0.0000000000    0.0340887206

    0.0000000000    0.1088089555   -0.0000000000

    0.0000000000    0.0000000000    0.0995183246

 RECIP-CONVVEC
    0.1888956011   -0.0000000000    0.0340887206

    0.0000000000    0.1088089555   -0.0000000000

    0.0000000000    0.0000000000    0.0995183246

 WIGNER-SEITZ-PRIMCELL
           4
 -0.2646965E+01 -0.4595210E+01 -0.4710143E+01  -0.3273011E+00  0.2014346E-15 -0.9449201E+00
 -0.2646965E+01  0.4595210E+01 -0.4710143E+01  -0.3273011E+00  0.2014346E-15 -0.9449201E+00
 -0.8335974E+00  0.4595210E+01 -0.5338257E+01  -0.3273011E+00  0.2014346E-15 -0.9449201E+00
 -0.8335974E+00 -0.4595210E+01 -0.5338257E+01  -0.3273011E+00  0.2014346E-15 -0.9449201E+00
           4
 -0.2646965E+01  0.4595210E+01 -0.4710143E+01  -0.1000000E+01  0.4832088E-16 -0.4555866E-32
 -0.2646965E+01 -0.4595210E+01 -0.4710143E+01  -0.1000000E+01  0.4832088E-16 -0.4555866E-32
 -0.2646965E+01 -0.4595210E+01  0.4710143E+01  -0.1000000E+01  0.4832088E-16 -0.4555866E-32
 -0.2646965E+01  0.4595210E+01  0.4710143E+01  -0.1000000E+01  0.4832088E-16 -0.4555866E-32
           6
  0.2646965E+01 -0.4595210E+01  0.4710143E+01  -0.2372379E-30 -0.1000000E+01  0.1602637E-14
  0.8335974E+00 -0.4595210E+01  0.5338257E+01  -0.2372379E-30 -0.1000000E+01  0.1602637E-14
 -0.2646965E+01 -0.4595210E+01  0.4710143E+01  -0.2372379E-30 -0.1000000E+01  0.1602637E-14
 -0.2646965E+01 -0.4595210E+01 -0.4710143E+01  -0.2372379E-30 -0.1000000E+01  0.1602637E-14
 -0.8335974E+00 -0.4595210E+01 -0.5338257E+01  -0.2372379E-30 -0.1000000E+01  0.1602637E-14
  0.2646965E+01 -0.4595210E+01 -0.4710143E+01  -0.2372379E-30 -0.1000000E+01  0.1602637E-14
           4
  0.2646965E+01  0.4595210E+01 -0.4710143E+01   0.1775946E+00  0.2185981E-15 -0.9841037E+00
  0.2646965E+01 -0.4595210E+01 -0.4710143E+01   0.1775946E+00  0.2185981E-15 -0.9841037E+00
 -0.8335974E+00 -0.4595210E+01 -0.5338257E+01   0.1775946E+00  0.2185981E-15 -0.9841037E+00
 -0.8335974E+00  0.4595210E+01 -0.5338257E+01   0.1775946E+00  0.2185981E-15 -0.9841037E+00
           4
  0.8335974E+00  0.4595210E+01  0.5338257E+01  -0.1775946E+00 -0.1456648E-15  0.9841037E+00
 -0.2646965E+01  0.4595210E+01  0.4710143E+01  -0.1775946E+00 -0.1456648E-15  0.9841037E+00
 -0.2646965E+01 -0.4595210E+01  0.4710143E+01  -0.1775946E+00 -0.1456648E-15  0.9841037E+00
  0.8335974E+00 -0.4595210E+01  0.5338257E+01  -0.1775946E+00 -0.1456648E-15  0.9841037E+00
           6
  0.2646965E+01  0.4595210E+01 -0.4710143E+01   0.0000000E+00  0.1000000E+01 -0.5342122E-15
 -0.8335974E+00  0.4595210E+01 -0.5338257E+01   0.0000000E+00  0.1000000E+01 -0.5342122E-15
 -0.2646965E+01  0.4595210E+01 -0.4710143E+01   0.0000000E+00  0.1000000E+01 -0.5342122E-15
 -0.2646965E+01  0.4595210E+01  0.4710143E+01   0.0000000E+00  0.1000000E+01 -0.5342122E-15
  0.8335974E+00  0.4595210E+01  0.5338257E+01   0.0000000E+00  0.1000000E+01 -0.5342122E-15
  0.2646965E+01  0.4595210E+01  0.4710143E+01   0.0000000E+00  0.1000000E+01 -0.5342122E-15
           4
  0.2646965E+01  0.4595210E+01  0.4710143E+01   0.1000000E+01 -0.4832088E-16 -0.9111732E-32
  0.2646965E+01 -0.4595210E+01  0.4710143E+01   0.1000000E+01 -0.4832088E-16 -0.9111732E-32
  0.2646965E+01 -0.4595210E+01 -0.4710143E+01   0.1000000E+01 -0.4832088E-16 -0.9111732E-32
  0.2646965E+01  0.4595210E+01 -0.4710143E+01   0.1000000E+01 -0.4832088E-16 -0.9111732E-32
           4
  0.2646965E+01 -0.4595210E+01  0.4710143E+01   0.3273011E+00 -0.2014346E-15  0.9449201E+00
  0.2646965E+01  0.4595210E+01  0.4710143E+01   0.3273011E+00 -0.2014346E-15  0.9449201E+00
  0.8335974E+00  0.4595210E+01  0.5338257E+01   0.3273011E+00 -0.2014346E-15  0.9449201E+00
  0.8335974E+00 -0.4595210E+01  0.5338257E+01   0.3273011E+00 -0.2014346E-15  0.9449201E+00
 WIGNER-SEITZ-PRIMCELL_END
 WIGNER-SEITZ-CONVCELL
           4
 -0.2646965E+01 -0.4595210E+01 -0.4710143E+01  -0.3273011E+00  0.2014346E-15 -0.9449201E+00
 -0.2646965E+01  0.4595210E+01 -0.4710143E+01  -0.3273011E+00  0.2014346E-15 -0.9449201E+00
 -0.8335974E+00  0.4595210E+01 -0.5338257E+01  -0.3273011E+00  0.2014346E-15 -0.9449201E+00
 -0.8335974E+00 -0.4595210E+01 -0.5338257E+01  -0.3273011E+00  0.2014346E-15 -0.9449201E+00
           4
 -0.2646965E+01  0.4595210E+01 -0.4710143E+01  -0.1000000E+01  0.4832088E-16 -0.4555866E-32
 -0.2646965E+01 -0.4595210E+01 -0.4710143E+01  -0.1000000E+01  0.4832088E-16 -0.4555866E-32
 -0.2646965E+01 -0.4595210E+01  0.4710143E+01  -0.1000000E+01  0.4832088E-16 -0.4555866E-32
 -0.2646965E+01  0.4595210E+01  0.4710143E+01  -0.1000000E+01  0.4832088E-16 -0.4555866E-32
           6
  0.2646965E+01 -0.4595210E+01  0.4710143E+01  -0.2372379E-30 -0.1000000E+01  0.1602637E-14
  0.8335974E+00 -0.4595210E+01  0.5338257E+01  -0.2372379E-30 -0.1000000E+01  0.1602637E-14
 -0.2646965E+01 -0.4595210E+01  0.4710143E+01  -0.2372379E-30 -0.1000000E+01  0.1602637E-14
 -0.2646965E+01 -0.4595210E+01 -0.4710143E+01  -0.2372379E-30 -0.1000000E+01  0.1602637E-14
 -0.8335974E+00 -0.4595210E+01 -0.5338257E+01  -0.2372379E-30 -0.1000000E+01  0.1602637E-14
  0.2646965E+01 -0.4595210E+01 -0.4710143E+01  -0.2372379E-30 -0.1000000E+01  0.1602637E-14
           4
  0.2646965E+01  0.4595210E+01 -0.4710143E+01   0.1775946E+00  0.2185981E-15 -0.9841037E+00
  0.2646965E+01 -0.4595210E+01 -0.4710143E+01   0.1775946E+00  0.2185981E-15 -0.9841037E+00
 -0.8335974E+00 -0.4595210E+01 -0.5338257E+01   0.1775946E+00  0.2185981E-15 -0.9841037E+00
 -0.8335974E+00  0.4595210E+01 -0.5338257E+01   0.1775946E+00  0.2185981E-15 -0.9841037E+00
           4
  0.8335974E+00  0.4595210E+01  0.5338257E+01  -0.1775946E+00 -0.1456648E-15  0.9841037E+00
 -0.2646965E+01  0.4595210E+01  0.4710143E+01  -0.1775946E+00 -0.1456648E-15  0.9841037E+00
 -0.2646965E+01 -0.4595210E+01  0.4710143E+01  -0.1775946E+00 -0.1456648E-15  0.9841037E+00
  0.8335974E+00 -0.4595210E+01  0.5338257E+01  -0.1775946E+00 -0.1456648E-15  0.9841037E+00
           6
  0.2646965E+01  0.4595210E+01 -0.4710143E+01   0.0000000E+00  0.1000000E+01 -0.5342122E-15
 -0.8335974E+00  0.4595210E+01 -0.5338257E+01   0.0000000E+00  0.1000000E+01 -0.5342122E-15
 -0.2646965E+01  0.4595210E+01 -0.4710143E+01   0.0000000E+00  0.1000000E+01 -0.5342122E-15
 -0.2646965E+01  0.4595210E+01  0.4710143E+01   0.0000000E+00  0.1000000E+01 -0.5342122E-15
  0.8335974E+00  0.4595210E+01  0.5338257E+01   0.0000000E+00  0.1000000E+01 -0.5342122E-15
  0.2646965E+01  0.4595210E+01  0.4710143E+01   0.0000000E+00  0.1000000E+01 -0.5342122E-15
           4
  0.2646965E+01  0.4595210E+01  0.4710143E+01   0.1000000E+01 -0.4832088E-16 -0.9111732E-32
  0.2646965E+01 -0.4595210E+01  0.4710143E+01   0.1000000E+01 -0.4832088E-16 -0.9111732E-32
  0.2646965E+01 -0.4595210E+01 -0.4710143E+01   0.1000000E+01 -0.4832088E-16 -0.9111732E-32
  0.2646965E+01  0.4595210E+01 -0.4710143E+01   0.1000000E+01 -0.4832088E-16 -0.9111732E-32
           4
  0.2646965E+01 -0.4595210E+01  0.4710143E+01   0.3273011E+00 -0.2014346E-15  0.9449201E+00
  0.2646965E+01  0.4595210E+01  0.4710143E+01   0.3273011E+00 -0.2014346E-15  0.9449201E+00
  0.8335974E+00  0.4595210E+01  0.5338257E+01   0.3273011E+00 -0.2014346E-15  0.9449201E+00
  0.8335974E+00 -0.4595210E+01  0.5338257E+01   0.3273011E+00 -0.2014346E-15  0.9449201E+00
 WIGNER-SEITZ-CONVCELL_END
 BRILLOUIN-ZONE-PRIMCELL
           4
  0.1003516E+00  0.5440448E-01 -0.1567044E-01   0.9449201E+00 -0.2762040E-16 -0.3273011E+00
  0.1003516E+00 -0.5440448E-01 -0.1567044E-01   0.9449201E+00 -0.2762040E-16 -0.3273011E+00
  0.8854398E-01 -0.5440448E-01 -0.4975916E-01   0.9449201E+00 -0.2762040E-16 -0.3273011E+00
  0.8854398E-01  0.5440448E-01 -0.4975916E-01   0.9449201E+00 -0.2762040E-16 -0.3273011E+00
           4
 -0.8854398E-01  0.5440448E-01 -0.4975916E-01  -0.4501389E-16  0.5419013E-16 -0.1000000E+01
  0.8854398E-01  0.5440448E-01 -0.4975916E-01  -0.4501389E-16  0.5419013E-16 -0.1000000E+01
  0.8854398E-01 -0.5440448E-01 -0.4975916E-01  -0.4501389E-16  0.5419013E-16 -0.1000000E+01
 -0.8854398E-01 -0.5440448E-01 -0.4975916E-01  -0.4501389E-16  0.5419013E-16 -0.1000000E+01
           6
  0.8854398E-01 -0.5440448E-01  0.4975916E-01   0.0000000E+00 -0.1000000E+01  0.2873628E-15
 -0.8854398E-01 -0.5440448E-01  0.4975916E-01   0.0000000E+00 -0.1000000E+01  0.2873628E-15
 -0.1003516E+00 -0.5440448E-01  0.1567044E-01   0.0000000E+00 -0.1000000E+01  0.2873628E-15
 -0.8854398E-01 -0.5440448E-01 -0.4975916E-01   0.0000000E+00 -0.1000000E+01  0.2873628E-15
  0.8854398E-01 -0.5440448E-01 -0.4975916E-01   0.0000000E+00 -0.1000000E+01  0.2873628E-15
  0.1003516E+00 -0.5440448E-01 -0.1567044E-01   0.0000000E+00 -0.1000000E+01  0.2873628E-15
           4
  0.8854398E-01 -0.5440448E-01  0.4975916E-01   0.9841037E+00 -0.3295374E-15  0.1775946E+00
  0.1003516E+00 -0.5440448E-01 -0.1567044E-01   0.9841037E+00 -0.3295374E-15  0.1775946E+00
  0.1003516E+00  0.5440448E-01 -0.1567044E-01   0.9841037E+00 -0.3295374E-15  0.1775946E+00
  0.8854398E-01  0.5440448E-01  0.4975916E-01   0.9841037E+00 -0.3295374E-15  0.1775946E+00
           4
 -0.1003516E+00  0.5440448E-01  0.1567044E-01  -0.9841037E+00 -0.2399650E-15 -0.1775946E+00
 -0.8854398E-01  0.5440448E-01 -0.4975916E-01  -0.9841037E+00 -0.2399650E-15 -0.1775946E+00
 -0.8854398E-01 -0.5440448E-01 -0.4975916E-01  -0.9841037E+00 -0.2399650E-15 -0.1775946E+00
 -0.1003516E+00 -0.5440448E-01  0.1567044E-01  -0.9841037E+00 -0.2399650E-15 -0.1775946E+00
           6
  0.1003516E+00  0.5440448E-01 -0.1567044E-01  -0.0000000E+00  0.1000000E+01 -0.0000000E+00
  0.8854398E-01  0.5440448E-01 -0.4975916E-01  -0.0000000E+00  0.1000000E+01 -0.0000000E+00
 -0.8854398E-01  0.5440448E-01 -0.4975916E-01  -0.0000000E+00  0.1000000E+01 -0.0000000E+00
 -0.1003516E+00  0.5440448E-01  0.1567044E-01  -0.0000000E+00  0.1000000E+01 -0.0000000E+00
 -0.8854398E-01  0.5440448E-01  0.4975916E-01  -0.0000000E+00  0.1000000E+01 -0.0000000E+00
  0.8854398E-01  0.5440448E-01  0.4975916E-01  -0.0000000E+00  0.1000000E+01 -0.0000000E+00
           4
 -0.8854398E-01 -0.5440448E-01  0.4975916E-01  -0.0000000E+00 -0.0000000E+00  0.1000000E+01
  0.8854398E-01 -0.5440448E-01  0.4975916E-01  -0.0000000E+00 -0.0000000E+00  0.1000000E+01
  0.8854398E-01  0.5440448E-01  0.4975916E-01  -0.0000000E+00 -0.0000000E+00  0.1000000E+01
 -0.8854398E-01  0.5440448E-01  0.4975916E-01  -0.0000000E+00 -0.0000000E+00  0.1000000E+01
           4
 -0.8854398E-01  0.5440448E-01  0.4975916E-01  -0.9449201E+00  0.2551668E-15  0.3273011E+00
 -0.1003516E+00  0.5440448E-01  0.1567044E-01  -0.9449201E+00  0.2551668E-15  0.3273011E+00
 -0.1003516E+00 -0.5440448E-01  0.1567044E-01  -0.9449201E+00  0.2551668E-15  0.3273011E+00
 -0.8854398E-01 -0.5440448E-01  0.4975916E-01  -0.9449201E+00  0.2551668E-15  0.3273011E+00
 BRILLOUIN-ZONE-PRIMCELL_END
 BRILLOUIN-ZONE-CONVCELL
           4
  0.1003516E+00  0.5440448E-01 -0.1567044E-01   0.9449201E+00 -0.2762040E-16 -0.3273011E+00
  0.1003516E+00 -0.5440448E-01 -0.1567044E-01   0.9449201E+00 -0.2762040E-16 -0.3273011E+00
  0.8854398E-01 -0.5440448E-01 -0.4975916E-01   0.9449201E+00 -0.2762040E-16 -0.3273011E+00
  0.8854398E-01  0.5440448E-01 -0.4975916E-01   0.9449201E+00 -0.2762040E-16 -0.3273011E+00
           4
 -0.8854398E-01  0.5440448E-01 -0.4975916E-01  -0.4501389E-16  0.5419013E-16 -0.1000000E+01
  0.8854398E-01  0.5440448E-01 -0.4975916E-01  -0.4501389E-16  0.5419013E-16 -0.1000000E+01
  0.8854398E-01 -0.5440448E-01 -0.4975916E-01  -0.4501389E-16  0.5419013E-16 -0.1000000E+01
 -0.8854398E-01 -0.5440448E-01 -0.4975916E-01  -0.4501389E-16  0.5419013E-16 -0.1000000E+01
           6
  0.8854398E-01 -0.5440448E-01  0.4975916E-01   0.0000000E+00 -0.1000000E+01  0.2873628E-15
 -0.8854398E-01 -0.5440448E-01  0.4975916E-01   0.0000000E+00 -0.1000000E+01  0.2873628E-15
 -0.1003516E+00 -0.5440448E-01  0.1567044E-01   0.0000000E+00 -0.1000000E+01  0.2873628E-15
 -0.8854398E-01 -0.5440448E-01 -0.4975916E-01   0.0000000E+00 -0.1000000E+01  0.2873628E-15
  0.8854398E-01 -0.5440448E-01 -0.4975916E-01   0.0000000E+00 -0.1000000E+01  0.2873628E-15
  0.1003516E+00 -0.5440448E-01 -0.1567044E-01   0.0000000E+00 -0.1000000E+01  0.2873628E-15
           4
  0.8854398E-01 -0.5440448E-01  0.4975916E-01   0.9841037E+00 -0.3295374E-15  0.1775946E+00
  0.1003516E+00 -0.5440448E-01 -0.1567044E-01   0.9841037E+00 -0.3295374E-15  0.1775946E+00
  0.1003516E+00  0.5440448E-01 -0.1567044E-01   0.9841037E+00 -0.3295374E-15  0.1775946E+00
  0.8854398E-01  0.5440448E-01  0.4975916E-01   0.9841037E+00 -0.3295374E-15  0.1775946E+00
           4
 -0.1003516E+00  0.5440448E-01  0.1567044E-01  -0.9841037E+00 -0.2399650E-15 -0.1775946E+00
 -0.8854398E-01  0.5440448E-01 -0.4975916E-01  -0.9841037E+00 -0.2399650E-15 -0.1775946E+00
 -0.8854398E-01 -0.5440448E-01 -0.4975916E-01  -0.9841037E+00 -0.2399650E-15 -0.1775946E+00
 -0.1003516E+00 -0.5440448E-01  0.1567044E-01  -0.9841037E+00 -0.2399650E-15 -0.1775946E+00
           6
  0.1003516E+00  0.5440448E-01 -0.1567044E-01  -0.0000000E+00  0.1000000E+01 -0.0000000E+00
  0.8854398E-01  0.5440448E-01 -0.4975916E-01  -0.0000000E+00  0.1000000E+01 -0.0000000E+00
 -0.8854398E-01  0.5440448E-01 -0.4975916E-01  -0.0000000E+00  0.1000000E+01 -0.0000000E+00
 -0.1003516E+00  0.5440448E-01  0.1567044E-01  -0.0000000E+00  0.1000000E+01 -0.0000000E+00
 -0.8854398E-01  0.5440448E-01  0.4975916E-01  -0.0000000E+00  0.1000000E+01 -0.0000000E+00
  0.8854398E-01  0.5440448E-01  0.4975916E-01  -0.0000000E+00  0.1000000E+01 -0.0000000E+00
           4
 -0.8854398E-01 -0.5440448E-01  0.4975916E-01  -0.0000000E+00 -0.0000000E+00  0.1000000E+01
  0.8854398E-01 -0.5440448E-01  0.4975916E-01  -0.0000000E+00 -0.0000000E+00  0.1000000E+01
  0.8854398E-01  0.5440448E-01  0.4975916E-01  -0.0000000E+00 -0.0000000E+00  0.1000000E+01
 -0.8854398E-01  0.5440448E-01  0.4975916E-01  -0.0000000E+00 -0.0000000E+00  0.1000000E+01
           4
 -0.8854398E-01  0.5440448E-01  0.4975916E-01  -0.9449201E+00  0.2551668E-15  0.3273011E+00
 -0.1003516E+00  0.5440448E-01  0.1567044E-01  -0.9449201E+00  0.2551668E-15  0.3273011E+00
 -0.1003516E+00 -0.5440448E-01  0.1567044E-01  -0.9449201E+00  0.2551668E-15  0.3273011E+00
 -0.8854398E-01 -0.5440448E-01  0.4975916E-01  -0.9449201E+00  0.2551668E-15  0.3273011E+00
 BRILLOUIN-ZONE-CONVCELL_END
 ATOMS
   19    0.0000000000    4.5642048690    0.0000000000    0.0000000000    0.0004432200    0.0000000000
   19    2.6469657200    0.0136677610    0.0000000000    0.0000000000   -0.0004591700    0.0000000000
   12   -0.9066833200    0.0388106030    5.0242003340    0.0000000000    0.0002413600    0.0000000000
   12   -0.9066833200    3.0631837240    5.0242003340    0.0000000000   -0.0000710500    0.0000000000
   12   -0.9066833200    6.1112517120    5.0242003340    0.0000000000   -0.0001093000    0.0000000000
   12    1.7402824000    4.5337415660    5.0242003340    0.0000000000   -0.0000671500    0.0000000000
   12    1.7402824000    7.6740394160    5.0242003340    0.0000000000   -0.0000893200    0.0000000000
   12    1.7402824000    1.5807285730    5.0242003340    0.0000000000    0.0001849500    0.0000000000
   14    0.0375577750    1.5161622810    2.2387677830    0.0000256000   -0.0000930800   -0.0001894500
   14    3.4430069870    1.5161622810    7.8096333390   -0.0000256000   -0.0000930800    0.0001894500
   14    3.5478558940    7.6673894320    7.7473932140    0.0000973500    0.0000473300    0.0003186100
   14   -0.0672910570    7.6673894320    2.3010074550   -0.0000973500    0.0000473300   -0.0003186100
   14    2.5760275920    6.1248382600    2.2807416400   -0.0000627300    0.0000923500   -0.0003327600
   14    0.9045371100    6.1248382600    7.7676587270    0.0000627300    0.0000923500    0.0003327600
   13    0.7919899340    3.0416191890    7.7913826780   -0.0001677400   -0.0001921200    0.0003129600
   13    2.6885748930    3.0416191890    2.2570178410    0.0001677400   -0.0001921200   -0.0003129600
    8   -0.0247855650    1.5030324150    3.8694820960    0.0000957800   -0.0000102000   -0.0001352000
    8    3.5053502390    1.5030324150    6.1789188640   -0.0000957800   -0.0000102000    0.0001352000
    8    3.5230891120    7.6561710540    6.1301822710   -0.0000093100   -0.0000324400    0.0000015000
    8   -0.0425241780    7.6561710540    3.9182180970    0.0000093100   -0.0000324400   -0.0000015000
    8    2.6066326310    6.1498230280    3.9048459410   -0.0001181200   -0.0000298700   -0.0000613300
    8    0.8739320110    6.1498230280    6.1435547280    0.0001181200   -0.0000298700    0.0000613300
    8    0.8170098080    3.0603010500    6.0642834150    0.0001292500    0.0000079200    0.0001288200
    8    2.6635548340    3.0603010500    3.9841172540   -0.0001292500    0.0000079200   -0.0001288200
    8    1.5229675480    1.8507662050    1.6667990550    0.0002136000   -0.0001422000    0.0002401300
    8    1.9575974660    1.8507662050    8.3816013120   -0.0002136000   -0.0001422000   -0.0002401300
    8    4.9542562140    9.1642148120    1.6860364210   -0.0000414300    0.0001966400    0.0001772500
    8   -1.4736914920    9.1642148120    8.3623640980    0.0000414300    0.0001966400   -0.0001772500
    8    2.1009224090    7.1358306510    8.3500669180    0.0001758500   -0.0001892300   -0.0002533900
    8    1.3796423920    7.1358306510    1.6983337510   -0.0001758500   -0.0001892300    0.0002533900
    8    4.0219720530    6.7133331350    1.6876053620    0.0000151500    0.0000394100    0.0001847500
    8   -0.5414073860    6.7133331350    8.3607956090   -0.0000151500    0.0000394100   -0.0001847500
    8    2.3232282990    4.6659743400    1.6307650050   -0.0000656900   -0.0000785700    0.0002761700
    8    1.1573364220    4.6659743400    8.4176361060    0.0000656900   -0.0000785700   -0.0002761700
    8   -0.7731294280    2.5522433290    8.4467035810   -0.0004220200    0.0003136600   -0.0001678300
    8    4.2536942810    2.5522433290    1.6016972390    0.0004220200    0.0003136600    0.0001678300
    8   -0.0240675930    4.6338296730    3.9538253770   -0.0000431400    0.0000279500   -0.0001767600
    8    3.5046324680    4.6338296730    6.0945752920    0.0000431400    0.0000279500    0.0001767600
    8    2.6279022430    9.1841887030    3.9884149620    0.0000078300   -0.0000382900    0.0001409500
    8    0.8526627710    9.1841887030    6.0599854060   -0.0000078300   -0.0000382900   -0.0001409500
    1   -0.0177125760    4.5363460850    2.9940117910   -0.0000439100   -0.0003607500    0.0003769300
    1    3.4982775360    4.5363460850    7.0543888780    0.0000439100   -0.0003607500   -0.0003769300
    1    2.6023324060    0.1487166640    3.0355234280   -0.0001490600    0.0004047200    0.0000025100
    1    0.8782326010    0.1487166640    7.0128769500    0.0001490600    0.0004047200   -0.0000025100
   19   -1.8133673890    4.5642048690   10.0484006710    0.0000000000    0.0004432200    0.0000000000
   19    0.8335983310    0.0136677610   10.0484006710    0.0000000000   -0.0004591700    0.0000000000
   19    5.2939295270    4.5642048690    0.0000000000    0.0000000000    0.0004432200    0.0000000000
   12    4.3872462070    0.0388106030    5.0242003340    0.0000000000    0.0002413600    0.0000000000
   12    4.3872462070    3.0631837240    5.0242003340    0.0000000000   -0.0000710500    0.0000000000
   12    4.3872462070    6.1112517120    5.0242003340    0.0000000000   -0.0001093000    0.0000000000
   19    3.4805621380    4.5642048690   10.0484006710    0.0000000000    0.0004432200    0.0000000000
 FRAMES
1      0.0000000000    0.0000000000    0.0000000000      5.2939295270    0.0000000000    0.0000000000
1      0.0000000000    0.0000000000    0.0000000000      0.0000000000    9.1904199940    0.0000000000
1      0.0000000000    0.0000000000    0.0000000000     -1.8133673890    0.0000000000   10.0484006710
1     -1.8133673890    0.0000000000   10.0484006710      3.4805621380    0.0000000000   10.0484006710
1     -1.8133673890    0.0000000000   10.0484006710     -1.8133673890    9.1904199940   10.0484006710
1      0.0000000000    9.1904199940    0.0000000000      5.2939295270    9.1904199940    0.0000000000
1      0.0000000000    9.1904199940    0.0000000000     -1.8133673890    9.1904199940   10.0484006710
1     -1.8133673890    9.1904199940   10.0484006710      3.4805621380    9.1904199940   10.0484006710
1      5.2939295270    0.0000000000    0.0000000000      5.2939295270    9.1904199940    0.0000000000
1      5.2939295270    0.0000000000    0.0000000000      3.4805621380    0.0000000000   10.0484006710
1      3.4805621380    0.0000000000   10.0484006710      3.4805621380    9.1904199940   10.0484006710
1      5.2939295270    9.1904199940    0.0000000000      3.4805621380    9.1904199940   10.0484006710
