 INFO
nunit      1    1    1
unit   cell
celltype   primcell
shape   parapipedal
 END_INFO
 DIM-GROUP
           3           1
 PRIMVEC
   10.6512137660    0.0000000000    0.0000000000
    0.0000000000    9.2452642000    0.0000000000
   -1.8340857540    0.0000000000   10.2591319360
 CONVVEC
   10.6512137660    0.0000000000    0.0000000000
    0.0000000000    9.2452642000    0.0000000000
   -1.8340857540    0.0000000000   10.2591319360
 PRIMCOORD
          87           1
 19      0.0221444320     4.5985078260     0.1243896190    -0.0000058000    -0.0000191300     0.0001052700
 19      5.2966217210     4.5535636320    -0.1970015960     0.0000203300     0.0000727300     0.0000432300
 19      2.7241565390     0.0461732470     0.0169611160    -0.0000104500     0.0000377400     0.0000683000
 19      7.9001456990     0.1019029740    -0.0212410300     0.0001750600     0.0000147200     0.0000008000
 12     -0.9202342390    -0.0260471330     5.1257495660    -0.0002262500    -0.0003314100    -0.0000913400
 12      4.4026524420     0.0314218290     5.1432290720    -0.0006432700    -0.0002482900     0.0001121900
 12      4.3137540750     3.1697235970     5.1784497890    -0.0006153100     0.0004703800    -0.0002153900
 12     -0.8282946180     6.1422610130     5.1283036980     0.0000563100     0.0001710200    -0.0000088000
 12      4.3164286370     6.1003485560     5.1328596150     0.0000898200    -0.0004883600    -0.0000563200
 12      7.0284055710     4.5945705880     5.1260785840    -0.0001690400     0.0002685500     0.0003039700
 12      1.7659576820     7.6631008340     5.1190388490     0.0000084200     0.0000126500    -0.0002718400
 12      7.0563334480     7.6986370640     5.1342683930     0.0004175600    -0.0002882600     0.0001028200
 12      1.8187085010     1.5982118490     5.1160870710    -0.0000375200     0.0001219300    -0.0001102500
 12      7.0166992990     1.5873192890     5.1364855520     0.0005310000    -0.0002739500    -0.0000722000
 14      0.0263541680     1.5430062600     2.2611492680    -0.0001907100    -0.0000936500    -0.0003348800
 14      5.3389989800     1.5392808750     2.3574782620     0.0000577500    -0.0001600500    -0.0000100700
 14      3.4505487320     1.5166282950     7.9520423050    -0.0003868300     0.0000545400    -0.0001832500
 14      8.7579896170     1.5376811490     7.9182279170     0.0004193500     0.0001689100     0.0002986600
 14      3.5536065420     7.6879472320     7.8762213710     0.0000076100     0.0000300200     0.0001214500
 14      8.8845517850     7.7058826080     7.8691000010     0.0002516800    -0.0000333800     0.0001151900
 14     -0.0483271440     7.6987234020     2.3671073720    -0.0000134300    -0.0002845700    -0.0001366000
 14      5.2605540080     7.7155993540     2.4024516940    -0.0001870300    -0.0000332900    -0.0001127800
 14      2.6192868690     6.1851273260     2.3466913510    -0.0003041300     0.0002729600     0.0003895100
 14      7.9334291120     6.1750393620     2.3782462220    -0.0000630300    -0.0000580900    -0.0000950000
 14      0.8811851580     6.1858092310     7.8906166420     0.0002086600    -0.0004753300     0.0002673200
 14      6.2199416740     6.1618499980     7.8897450290     0.0002090900     0.0001407600     0.0001762000
 13      0.7509862610     3.0586334810     7.9781242970     0.0000090900     0.0000116700    -0.0000176100
 13      6.0724678120     3.0773572330     7.8917993920     0.0001795600    -0.0003126800     0.0002179500
 13      2.7027148490     3.0957659470     2.3726547220     0.0000284100    -0.0000551200     0.0002948000
 13      8.0328285900     3.0782583880     2.3050177260    -0.0002371700     0.0000662400    -0.0000845700
  8     -0.0840586040     1.5880661560     3.9380820700     0.0000812800    -0.0004322700    -0.0002007600
  8      5.2873239550     1.5261424210     3.9902023950     0.0000909500    -0.0001598800    -0.0000606300
  8      3.5077140970     1.5185528940     6.3183307020     0.0001477100    -0.0001572900    -0.0001791000
  8      8.8614475250     1.5787230230     6.2567181700    -0.0008874800    -0.0000767400     0.0001423200
  8      3.5342178210     7.7077956000     6.2572519510     0.0000272500     0.0003424700     0.0001402000
  8      8.8664721670     7.6728864240     6.2430990490     0.0001729500     0.0000212200     0.0000281000
  8     -0.0430538260     7.6825604560     3.9900616140     0.0003137300     0.0001612300    -0.0001396300
  8      5.2799921580     7.6952418480     4.0242363320     0.0002106400     0.0005344000    -0.0001478200
  8      2.6519950590     6.2808717600     3.9453922300    -0.0000316100     0.0006255300    -0.0000846200
  8      7.9952253140     6.1607371310     4.0121366740     0.0003718900     0.0001000200     0.0000392200
  8      0.8227571480     6.2758776600     6.2897769730    -0.0000726800     0.0002604800     0.0000663900
  8      6.2237473420     6.1765325180     6.2591841520     0.0000642400    -0.0001915600     0.0000230600
  8      0.6055905910     2.9381299290     6.2141477310     0.0002382600     0.0000447400     0.0001059500
  8      6.1519309240     3.0962660060     6.1527321830    -0.0000539500    -0.0002592400     0.0000918900
  8      2.6280038670     3.0634957390     4.0902263260     0.0001280800    -0.0005637400     0.0003313200
  8      8.1173537460     3.0895081980     4.0851788930    -0.0000252400     0.0000811400    -0.0001906900
  8      1.4977938480     1.9357093180     1.7292680730    -0.0000587000     0.0002278400    -0.0005248300
  8      6.8287512260     1.9073407420     1.8035201920     0.0000062700    -0.0002196600     0.0002107900
  8      1.9706506630     1.9221109210     8.5172075740     0.0001018000     0.0005209500    -0.0001414100
  8      7.2701271980     1.8780003360     8.4495949360     0.0002435600    -0.0002281700     0.0000903100
  8     -0.2940488590     9.2227647640     1.7941116600     0.0002835700    -0.0003509400    -0.0001843200
  8      5.0263819370     9.2301808250     1.7977786950    -0.0000271300    -0.0001045600    -0.0001533000
  8      3.7284091370     9.2021662090     8.5020037800    -0.0001063300     0.0000409400    -0.0000079600
  8      9.1264022260     9.2363513180     8.4263077420    -0.0002938800    -0.0001200600    -0.0000589600
  8      2.1380510340     7.1008234420     8.5036416440    -0.0002794800     0.0003513500    -0.0001505800
  8      7.4532303990     7.1449399600     8.4668167210     0.0003069800     0.0002024000     0.0003304200
  8      1.3740755870     7.1511000720     1.7391836770    -0.0000632800     0.0000204500    -0.0003831600
  8      6.7193470340     7.1740254060     1.8254414340     0.0000194900     0.0001533100     0.0000419600
  8      4.0531363260     6.8109958470     1.7288231610    -0.0002266600    -0.0001737300     0.0000735600
  8      9.3517561280     6.8020388440     1.7651422910    -0.0000135900    -0.0000502700    -0.0002405100
  8     -0.5406513960     6.8173295140     8.5251740180     0.0002906300     0.0001330900    -0.0002855700
  8      4.8289614430     6.8406360010     8.4977710840    -0.0000940300    -0.0001391400     0.0003715000
  8      2.4185623050     4.7164726160     1.6924591610     0.0001135800    -0.0000513700     0.0001783500
  8      7.6950490820     4.7095942680     1.7283285520    -0.0000519000     0.0001918800    -0.0000698600
  8      1.0332257830     4.6982886000     8.5169693910    -0.0001080300     0.0000236400    -0.0002605700
  8      6.4470707110     4.6939106820     8.5410870590     0.0000736200     0.0001897400     0.0001092500
  8     -0.8215673730     2.5550002310     8.5948969940     0.0001395400     0.0000562700    -0.0000306400
  8      4.5910981180     2.4530167240     8.6246926070    -0.0001857400    -0.0000937600    -0.0000510700
  8      4.2483086310     2.5388927330     1.6900950780    -0.0001956800    -0.0003340400    -0.0000570900
  8      9.5407541390     2.4939866190     1.6141195080    -0.0000661400    -0.0000612500    -0.0000274500
  8     -0.0372242160     4.5061534610     4.0432875510     0.0000138400     0.0003443600    -0.0002950300
  8      5.3134949050     4.6592205530     4.0451183980     0.0003310500     0.0000785800     0.0002813700
  8      3.6601423930     4.6770185510     6.3893221350    -0.0001082900     0.0001860900     0.0000308100
  8      8.8902317860     4.5629281860     6.1474989360     0.0001367900    -0.0000579700     0.0001328800
  8      2.6294562400     9.2502736950     4.1021426490     0.0001403400    -0.0001213600     0.0003364400
  8      7.9654260990     9.2564854630     4.1230721090     0.0000930600    -0.0002749100     0.0003577600
  8      0.8506867280     9.2665544020     6.0987668720    -0.0000542600     0.0005998700    -0.0000086500
  8      6.1867407130     9.2403650090     6.1669269290    -0.0001721700     0.0000832100     0.0003464500
  1      0.9517781320     4.4347146830     4.1307414380    -0.0000566700     0.0002270800    -0.0001819500
  1      5.2702396570     4.5875264120     3.0823773400    -0.0005229200    -0.0000472500     0.0001317000
  1      2.6907987270     4.6921304180     6.3007723170    -0.0002157900    -0.0000695400    -0.0004073900
  1      8.9052782920     4.4539145630     7.1121681730     0.0007768800     0.0000188300    -0.0002688400
  1      2.6813339570     0.0957605570     3.1416407460    -0.0003128400     0.0001247300     0.0003108100
  1      7.9321249080     0.1139174360     3.1619371020    -0.0000538500    -0.0000496400    -0.0006210100
  1      0.8533727920     0.1149125260     7.0614679090     0.0000206700     0.0000471400    -0.0003676200
  1      6.1970780890     0.1274901890     7.1247146100     0.0000434200    -0.0001895300     0.0003833600
 22     -0.8093299080     3.0851857710     5.0603894050    -0.0002235100    -0.0001743800     0.0002780800
 CONVCOORD
          87           1
 19      0.0221444320     4.5985078260     0.1243896190
 19      5.2966217210     4.5535636320    -0.1970015960
 19      2.7241565390     0.0461732470     0.0169611160
 19      7.9001456990     0.1019029740    -0.0212410300
 12     -0.9202342390    -0.0260471330     5.1257495660
 12      4.4026524420     0.0314218290     5.1432290720
 12      4.3137540750     3.1697235970     5.1784497890
 12     -0.8282946180     6.1422610130     5.1283036980
 12      4.3164286370     6.1003485560     5.1328596150
 12      7.0284055710     4.5945705880     5.1260785840
 12      1.7659576820     7.6631008340     5.1190388490
 12      7.0563334480     7.6986370640     5.1342683930
 12      1.8187085010     1.5982118490     5.1160870710
 12      7.0166992990     1.5873192890     5.1364855520
 14      0.0263541680     1.5430062600     2.2611492680
 14      5.3389989800     1.5392808750     2.3574782620
 14      3.4505487320     1.5166282950     7.9520423050
 14      8.7579896170     1.5376811490     7.9182279170
 14      3.5536065420     7.6879472320     7.8762213710
 14      8.8845517850     7.7058826080     7.8691000010
 14     -0.0483271440     7.6987234020     2.3671073720
 14      5.2605540080     7.7155993540     2.4024516940
 14      2.6192868690     6.1851273260     2.3466913510
 14      7.9334291120     6.1750393620     2.3782462220
 14      0.8811851580     6.1858092310     7.8906166420
 14      6.2199416740     6.1618499980     7.8897450290
 13      0.7509862610     3.0586334810     7.9781242970
 13      6.0724678120     3.0773572330     7.8917993920
 13      2.7027148490     3.0957659470     2.3726547220
 13      8.0328285900     3.0782583880     2.3050177260
  8     -0.0840586040     1.5880661560     3.9380820700
  8      5.2873239550     1.5261424210     3.9902023950
  8      3.5077140970     1.5185528940     6.3183307020
  8      8.8614475250     1.5787230230     6.2567181700
  8      3.5342178210     7.7077956000     6.2572519510
  8      8.8664721670     7.6728864240     6.2430990490
  8     -0.0430538260     7.6825604560     3.9900616140
  8      5.2799921580     7.6952418480     4.0242363320
  8      2.6519950590     6.2808717600     3.9453922300
  8      7.9952253140     6.1607371310     4.0121366740
  8      0.8227571480     6.2758776600     6.2897769730
  8      6.2237473420     6.1765325180     6.2591841520
  8      0.6055905910     2.9381299290     6.2141477310
  8      6.1519309240     3.0962660060     6.1527321830
  8      2.6280038670     3.0634957390     4.0902263260
  8      8.1173537460     3.0895081980     4.0851788930
  8      1.4977938480     1.9357093180     1.7292680730
  8      6.8287512260     1.9073407420     1.8035201920
  8      1.9706506630     1.9221109210     8.5172075740
  8      7.2701271980     1.8780003360     8.4495949360
  8     -0.2940488590     9.2227647640     1.7941116600
  8      5.0263819370     9.2301808250     1.7977786950
  8      3.7284091370     9.2021662090     8.5020037800
  8      9.1264022260     9.2363513180     8.4263077420
  8      2.1380510340     7.1008234420     8.5036416440
  8      7.4532303990     7.1449399600     8.4668167210
  8      1.3740755870     7.1511000720     1.7391836770
  8      6.7193470340     7.1740254060     1.8254414340
  8      4.0531363260     6.8109958470     1.7288231610
  8      9.3517561280     6.8020388440     1.7651422910
  8     -0.5406513960     6.8173295140     8.5251740180
  8      4.8289614430     6.8406360010     8.4977710840
  8      2.4185623050     4.7164726160     1.6924591610
  8      7.6950490820     4.7095942680     1.7283285520
  8      1.0332257830     4.6982886000     8.5169693910
  8      6.4470707110     4.6939106820     8.5410870590
  8     -0.8215673730     2.5550002310     8.5948969940
  8      4.5910981180     2.4530167240     8.6246926070
  8      4.2483086310     2.5388927330     1.6900950780
  8      9.5407541390     2.4939866190     1.6141195080
  8     -0.0372242160     4.5061534610     4.0432875510
  8      5.3134949050     4.6592205530     4.0451183980
  8      3.6601423930     4.6770185510     6.3893221350
  8      8.8902317860     4.5629281860     6.1474989360
  8      2.6294562400     0.0050094950     4.1021426490
  8      7.9654260990     0.0112212630     4.1230721090
  8      0.8506867280     0.0212902020     6.0987668720
  8      6.1867407130     9.2403650090     6.1669269290
  1      0.9517781320     4.4347146830     4.1307414380
  1      5.2702396570     4.5875264120     3.0823773400
  1      2.6907987270     4.6921304180     6.3007723170
  1      8.9052782920     4.4539145630     7.1121681730
  1      2.6813339570     0.0957605570     3.1416407460
  1      7.9321249080     0.1139174360     3.1619371020
  1      0.8533727920     0.1149125260     7.0614679090
  1      6.1970780890     0.1274901890     7.1247146100
 22     -0.8093299080     3.0851857710     5.0603894050
 RECIP-PRIMVEC
    0.0938860136   -0.0000000000    0.0167845585

    0.0000000000    0.1081634855   -0.0000000000

    0.0000000000    0.0000000000    0.0974741339

 RECIP-CONVVEC
    0.0938860136   -0.0000000000    0.0167845585

    0.0000000000    0.1081634855   -0.0000000000

    0.0000000000    0.0000000000    0.0974741339

 WIGNER-SEITZ-PRIMCELL
           6
 -0.5325607E+01 -0.4622632E+01 -0.4341421E+01   0.0000000E+00 -0.1000000E+01 -0.4232090E-15
 -0.3491521E+01 -0.4622632E+01 -0.5917711E+01   0.0000000E+00 -0.1000000E+01 -0.4232090E-15
  0.5325607E+01 -0.4622632E+01 -0.4341421E+01   0.0000000E+00 -0.1000000E+01 -0.4232090E-15
  0.5325607E+01 -0.4622632E+01  0.4341421E+01   0.0000000E+00 -0.1000000E+01 -0.4232090E-15
  0.3491521E+01 -0.4622632E+01  0.5917711E+01   0.0000000E+00 -0.1000000E+01 -0.4232090E-15
 -0.5325607E+01 -0.4622632E+01  0.4341421E+01   0.0000000E+00 -0.1000000E+01 -0.4232090E-15
           4
  0.3491521E+01 -0.4622632E+01  0.5917711E+01   0.6517959E+00 -0.7291088E-16  0.7583944E+00
  0.5325607E+01 -0.4622632E+01  0.4341421E+01   0.6517959E+00 -0.7291088E-16  0.7583944E+00
  0.5325607E+01  0.4622632E+01  0.4341421E+01   0.6517959E+00 -0.7291088E-16  0.7583944E+00
  0.3491521E+01  0.4622632E+01  0.5917711E+01   0.6517959E+00 -0.7291088E-16  0.7583944E+00
           4
 -0.5325607E+01  0.4622632E+01  0.4341421E+01  -0.1759857E+00 -0.0000000E+00  0.9843927E+00
 -0.5325607E+01 -0.4622632E+01  0.4341421E+01  -0.1759857E+00 -0.0000000E+00  0.9843927E+00
  0.3491521E+01 -0.4622632E+01  0.5917711E+01  -0.1759857E+00 -0.0000000E+00  0.9843927E+00
  0.3491521E+01  0.4622632E+01  0.5917711E+01  -0.1759857E+00 -0.0000000E+00  0.9843927E+00
           4
  0.5325607E+01 -0.4622632E+01  0.4341421E+01   0.1000000E+01  0.9606847E-16 -0.1022912E-15
  0.5325607E+01 -0.4622632E+01 -0.4341421E+01   0.1000000E+01  0.9606847E-16 -0.1022912E-15
  0.5325607E+01  0.4622632E+01 -0.4341421E+01   0.1000000E+01  0.9606847E-16 -0.1022912E-15
  0.5325607E+01  0.4622632E+01  0.4341421E+01   0.1000000E+01  0.9606847E-16 -0.1022912E-15
           4
 -0.5325607E+01  0.4622632E+01 -0.4341421E+01  -0.1000000E+01  0.9606847E-16  0.1022912E-15
 -0.5325607E+01 -0.4622632E+01 -0.4341421E+01  -0.1000000E+01  0.9606847E-16  0.1022912E-15
 -0.5325607E+01 -0.4622632E+01  0.4341421E+01  -0.1000000E+01  0.9606847E-16  0.1022912E-15
 -0.5325607E+01  0.4622632E+01  0.4341421E+01  -0.1000000E+01  0.9606847E-16  0.1022912E-15
           4
  0.5325607E+01 -0.4622632E+01 -0.4341421E+01   0.1759857E+00 -0.2328220E-16 -0.9843927E+00
 -0.3491521E+01 -0.4622632E+01 -0.5917711E+01   0.1759857E+00 -0.2328220E-16 -0.9843927E+00
 -0.3491521E+01  0.4622632E+01 -0.5917711E+01   0.1759857E+00 -0.2328220E-16 -0.9843927E+00
  0.5325607E+01  0.4622632E+01 -0.4341421E+01   0.1759857E+00 -0.2328220E-16 -0.9843927E+00
           4
 -0.5325607E+01  0.4622632E+01 -0.4341421E+01  -0.6517959E+00 -0.3876049E-16 -0.7583944E+00
 -0.3491521E+01  0.4622632E+01 -0.5917711E+01  -0.6517959E+00 -0.3876049E-16 -0.7583944E+00
 -0.3491521E+01 -0.4622632E+01 -0.5917711E+01  -0.6517959E+00 -0.3876049E-16 -0.7583944E+00
 -0.5325607E+01 -0.4622632E+01 -0.4341421E+01  -0.6517959E+00 -0.3876049E-16 -0.7583944E+00
           6
  0.3491521E+01  0.4622632E+01  0.5917711E+01   0.0000000E+00  0.1000000E+01  0.0000000E+00
  0.5325607E+01  0.4622632E+01  0.4341421E+01   0.0000000E+00  0.1000000E+01  0.0000000E+00
  0.5325607E+01  0.4622632E+01 -0.4341421E+01   0.0000000E+00  0.1000000E+01  0.0000000E+00
 -0.3491521E+01  0.4622632E+01 -0.5917711E+01   0.0000000E+00  0.1000000E+01  0.0000000E+00
 -0.5325607E+01  0.4622632E+01 -0.4341421E+01   0.0000000E+00  0.1000000E+01  0.0000000E+00
 -0.5325607E+01  0.4622632E+01  0.4341421E+01   0.0000000E+00  0.1000000E+01  0.0000000E+00
 WIGNER-SEITZ-PRIMCELL_END
 WIGNER-SEITZ-CONVCELL
           6
 -0.5325607E+01 -0.4622632E+01 -0.4341421E+01   0.0000000E+00 -0.1000000E+01 -0.4232090E-15
 -0.3491521E+01 -0.4622632E+01 -0.5917711E+01   0.0000000E+00 -0.1000000E+01 -0.4232090E-15
  0.5325607E+01 -0.4622632E+01 -0.4341421E+01   0.0000000E+00 -0.1000000E+01 -0.4232090E-15
  0.5325607E+01 -0.4622632E+01  0.4341421E+01   0.0000000E+00 -0.1000000E+01 -0.4232090E-15
  0.3491521E+01 -0.4622632E+01  0.5917711E+01   0.0000000E+00 -0.1000000E+01 -0.4232090E-15
 -0.5325607E+01 -0.4622632E+01  0.4341421E+01   0.0000000E+00 -0.1000000E+01 -0.4232090E-15
           4
  0.3491521E+01 -0.4622632E+01  0.5917711E+01   0.6517959E+00 -0.7291088E-16  0.7583944E+00
  0.5325607E+01 -0.4622632E+01  0.4341421E+01   0.6517959E+00 -0.7291088E-16  0.7583944E+00
  0.5325607E+01  0.4622632E+01  0.4341421E+01   0.6517959E+00 -0.7291088E-16  0.7583944E+00
  0.3491521E+01  0.4622632E+01  0.5917711E+01   0.6517959E+00 -0.7291088E-16  0.7583944E+00
           4
 -0.5325607E+01  0.4622632E+01  0.4341421E+01  -0.1759857E+00 -0.0000000E+00  0.9843927E+00
 -0.5325607E+01 -0.4622632E+01  0.4341421E+01  -0.1759857E+00 -0.0000000E+00  0.9843927E+00
  0.3491521E+01 -0.4622632E+01  0.5917711E+01  -0.1759857E+00 -0.0000000E+00  0.9843927E+00
  0.3491521E+01  0.4622632E+01  0.5917711E+01  -0.1759857E+00 -0.0000000E+00  0.9843927E+00
           4
  0.5325607E+01 -0.4622632E+01  0.4341421E+01   0.1000000E+01  0.9606847E-16 -0.1022912E-15
  0.5325607E+01 -0.4622632E+01 -0.4341421E+01   0.1000000E+01  0.9606847E-16 -0.1022912E-15
  0.5325607E+01  0.4622632E+01 -0.4341421E+01   0.1000000E+01  0.9606847E-16 -0.1022912E-15
  0.5325607E+01  0.4622632E+01  0.4341421E+01   0.1000000E+01  0.9606847E-16 -0.1022912E-15
           4
 -0.5325607E+01  0.4622632E+01 -0.4341421E+01  -0.1000000E+01  0.9606847E-16  0.1022912E-15
 -0.5325607E+01 -0.4622632E+01 -0.4341421E+01  -0.1000000E+01  0.9606847E-16  0.1022912E-15
 -0.5325607E+01 -0.4622632E+01  0.4341421E+01  -0.1000000E+01  0.9606847E-16  0.1022912E-15
 -0.5325607E+01  0.4622632E+01  0.4341421E+01  -0.1000000E+01  0.9606847E-16  0.1022912E-15
           4
  0.5325607E+01 -0.4622632E+01 -0.4341421E+01   0.1759857E+00 -0.2328220E-16 -0.9843927E+00
 -0.3491521E+01 -0.4622632E+01 -0.5917711E+01   0.1759857E+00 -0.2328220E-16 -0.9843927E+00
 -0.3491521E+01  0.4622632E+01 -0.5917711E+01   0.1759857E+00 -0.2328220E-16 -0.9843927E+00
  0.5325607E+01  0.4622632E+01 -0.4341421E+01   0.1759857E+00 -0.2328220E-16 -0.9843927E+00
           4
 -0.5325607E+01  0.4622632E+01 -0.4341421E+01  -0.6517959E+00 -0.3876049E-16 -0.7583944E+00
 -0.3491521E+01  0.4622632E+01 -0.5917711E+01  -0.6517959E+00 -0.3876049E-16 -0.7583944E+00
 -0.3491521E+01 -0.4622632E+01 -0.5917711E+01  -0.6517959E+00 -0.3876049E-16 -0.7583944E+00
 -0.5325607E+01 -0.4622632E+01 -0.4341421E+01  -0.6517959E+00 -0.3876049E-16 -0.7583944E+00
           6
  0.3491521E+01  0.4622632E+01  0.5917711E+01   0.0000000E+00  0.1000000E+01  0.0000000E+00
  0.5325607E+01  0.4622632E+01  0.4341421E+01   0.0000000E+00  0.1000000E+01  0.0000000E+00
  0.5325607E+01  0.4622632E+01 -0.4341421E+01   0.0000000E+00  0.1000000E+01  0.0000000E+00
 -0.3491521E+01  0.4622632E+01 -0.5917711E+01   0.0000000E+00  0.1000000E+01  0.0000000E+00
 -0.5325607E+01  0.4622632E+01 -0.4341421E+01   0.0000000E+00  0.1000000E+01  0.0000000E+00
 -0.5325607E+01  0.4622632E+01  0.4341421E+01   0.0000000E+00  0.1000000E+01  0.0000000E+00
 WIGNER-SEITZ-CONVCELL_END
 BRILLOUIN-ZONE-PRIMCELL
           4
 -0.5415568E-01  0.5408174E-01  0.3195251E-01  -0.9843927E+00 -0.3723593E-16 -0.1759857E+00
 -0.3973033E-01  0.5408174E-01 -0.4873707E-01  -0.9843927E+00 -0.3723593E-16 -0.1759857E+00
 -0.3973033E-01 -0.5408174E-01 -0.4873707E-01  -0.9843927E+00 -0.3723593E-16 -0.1759857E+00
 -0.5415568E-01 -0.5408174E-01  0.3195251E-01  -0.9843927E+00 -0.3723593E-16 -0.1759857E+00
           4
 -0.5415568E-01  0.5408174E-01  0.3195251E-01  -0.7583944E+00 -0.2038109E-15  0.6517959E+00
 -0.5415568E-01 -0.5408174E-01  0.3195251E-01  -0.7583944E+00 -0.2038109E-15  0.6517959E+00
 -0.3973033E-01 -0.5408174E-01  0.4873707E-01  -0.7583944E+00 -0.2038109E-15  0.6517959E+00
 -0.3973033E-01  0.5408174E-01  0.4873707E-01  -0.7583944E+00 -0.2038109E-15  0.6517959E+00
           6
  0.3973033E-01 -0.5408174E-01  0.4873707E-01  -0.0000000E+00 -0.1000000E+01 -0.6503366E-15
 -0.3973033E-01 -0.5408174E-01  0.4873707E-01  -0.0000000E+00 -0.1000000E+01 -0.6503366E-15
 -0.5415568E-01 -0.5408174E-01  0.3195251E-01  -0.0000000E+00 -0.1000000E+01 -0.6503366E-15
 -0.3973033E-01 -0.5408174E-01 -0.4873707E-01  -0.0000000E+00 -0.1000000E+01 -0.6503366E-15
  0.3973033E-01 -0.5408174E-01 -0.4873707E-01  -0.0000000E+00 -0.1000000E+01 -0.6503366E-15
  0.5415568E-01 -0.5408174E-01 -0.3195251E-01  -0.0000000E+00 -0.1000000E+01 -0.6503366E-15
           4
 -0.3973033E-01 -0.5408174E-01 -0.4873707E-01  -0.1009177E-15 -0.1009177E-15 -0.1000000E+01
 -0.3973033E-01  0.5408174E-01 -0.4873707E-01  -0.1009177E-15 -0.1009177E-15 -0.1000000E+01
  0.3973033E-01  0.5408174E-01 -0.4873707E-01  -0.1009177E-15 -0.1009177E-15 -0.1000000E+01
  0.3973033E-01 -0.5408174E-01 -0.4873707E-01  -0.1009177E-15 -0.1009177E-15 -0.1000000E+01
           4
  0.3973033E-01 -0.5408174E-01  0.4873707E-01  -0.8379303E-16 -0.5045886E-16  0.1000000E+01
  0.3973033E-01  0.5408174E-01  0.4873707E-01  -0.8379303E-16 -0.5045886E-16  0.1000000E+01
 -0.3973033E-01  0.5408174E-01  0.4873707E-01  -0.8379303E-16 -0.5045886E-16  0.1000000E+01
 -0.3973033E-01 -0.5408174E-01  0.4873707E-01  -0.8379303E-16 -0.5045886E-16  0.1000000E+01
           6
  0.5415568E-01  0.5408174E-01 -0.3195251E-01   0.0000000E+00  0.1000000E+01  0.6503366E-15
  0.3973033E-01  0.5408174E-01 -0.4873707E-01   0.0000000E+00  0.1000000E+01  0.6503366E-15
 -0.3973033E-01  0.5408174E-01 -0.4873707E-01   0.0000000E+00  0.1000000E+01  0.6503366E-15
 -0.5415568E-01  0.5408174E-01  0.3195251E-01   0.0000000E+00  0.1000000E+01  0.6503366E-15
 -0.3973033E-01  0.5408174E-01  0.4873707E-01   0.0000000E+00  0.1000000E+01  0.6503366E-15
  0.3973033E-01  0.5408174E-01  0.4873707E-01   0.0000000E+00  0.1000000E+01  0.6503366E-15
           4
  0.5415568E-01 -0.5408174E-01 -0.3195251E-01   0.7583944E+00  0.3027849E-15 -0.6517959E+00
  0.3973033E-01 -0.5408174E-01 -0.4873707E-01   0.7583944E+00  0.3027849E-15 -0.6517959E+00
  0.3973033E-01  0.5408174E-01 -0.4873707E-01   0.7583944E+00  0.3027849E-15 -0.6517959E+00
  0.5415568E-01  0.5408174E-01 -0.3195251E-01   0.7583944E+00  0.3027849E-15 -0.6517959E+00
           4
  0.3973033E-01 -0.5408174E-01  0.4873707E-01   0.9843927E+00  0.4425780E-16  0.1759857E+00
  0.5415568E-01 -0.5408174E-01 -0.3195251E-01   0.9843927E+00  0.4425780E-16  0.1759857E+00
  0.5415568E-01  0.5408174E-01 -0.3195251E-01   0.9843927E+00  0.4425780E-16  0.1759857E+00
  0.3973033E-01  0.5408174E-01  0.4873707E-01   0.9843927E+00  0.4425780E-16  0.1759857E+00
 BRILLOUIN-ZONE-PRIMCELL_END
 BRILLOUIN-ZONE-CONVCELL
           4
 -0.5415568E-01  0.5408174E-01  0.3195251E-01  -0.9843927E+00 -0.3723593E-16 -0.1759857E+00
 -0.3973033E-01  0.5408174E-01 -0.4873707E-01  -0.9843927E+00 -0.3723593E-16 -0.1759857E+00
 -0.3973033E-01 -0.5408174E-01 -0.4873707E-01  -0.9843927E+00 -0.3723593E-16 -0.1759857E+00
 -0.5415568E-01 -0.5408174E-01  0.3195251E-01  -0.9843927E+00 -0.3723593E-16 -0.1759857E+00
           4
 -0.5415568E-01  0.5408174E-01  0.3195251E-01  -0.7583944E+00 -0.2038109E-15  0.6517959E+00
 -0.5415568E-01 -0.5408174E-01  0.3195251E-01  -0.7583944E+00 -0.2038109E-15  0.6517959E+00
 -0.3973033E-01 -0.5408174E-01  0.4873707E-01  -0.7583944E+00 -0.2038109E-15  0.6517959E+00
 -0.3973033E-01  0.5408174E-01  0.4873707E-01  -0.7583944E+00 -0.2038109E-15  0.6517959E+00
           6
  0.3973033E-01 -0.5408174E-01  0.4873707E-01  -0.0000000E+00 -0.1000000E+01 -0.6503366E-15
 -0.3973033E-01 -0.5408174E-01  0.4873707E-01  -0.0000000E+00 -0.1000000E+01 -0.6503366E-15
 -0.5415568E-01 -0.5408174E-01  0.3195251E-01  -0.0000000E+00 -0.1000000E+01 -0.6503366E-15
 -0.3973033E-01 -0.5408174E-01 -0.4873707E-01  -0.0000000E+00 -0.1000000E+01 -0.6503366E-15
  0.3973033E-01 -0.5408174E-01 -0.4873707E-01  -0.0000000E+00 -0.1000000E+01 -0.6503366E-15
  0.5415568E-01 -0.5408174E-01 -0.3195251E-01  -0.0000000E+00 -0.1000000E+01 -0.6503366E-15
           4
 -0.3973033E-01 -0.5408174E-01 -0.4873707E-01  -0.1009177E-15 -0.1009177E-15 -0.1000000E+01
 -0.3973033E-01  0.5408174E-01 -0.4873707E-01  -0.1009177E-15 -0.1009177E-15 -0.1000000E+01
  0.3973033E-01  0.5408174E-01 -0.4873707E-01  -0.1009177E-15 -0.1009177E-15 -0.1000000E+01
  0.3973033E-01 -0.5408174E-01 -0.4873707E-01  -0.1009177E-15 -0.1009177E-15 -0.1000000E+01
           4
  0.3973033E-01 -0.5408174E-01  0.4873707E-01  -0.8379303E-16 -0.5045886E-16  0.1000000E+01
  0.3973033E-01  0.5408174E-01  0.4873707E-01  -0.8379303E-16 -0.5045886E-16  0.1000000E+01
 -0.3973033E-01  0.5408174E-01  0.4873707E-01  -0.8379303E-16 -0.5045886E-16  0.1000000E+01
 -0.3973033E-01 -0.5408174E-01  0.4873707E-01  -0.8379303E-16 -0.5045886E-16  0.1000000E+01
           6
  0.5415568E-01  0.5408174E-01 -0.3195251E-01   0.0000000E+00  0.1000000E+01  0.6503366E-15
  0.3973033E-01  0.5408174E-01 -0.4873707E-01   0.0000000E+00  0.1000000E+01  0.6503366E-15
 -0.3973033E-01  0.5408174E-01 -0.4873707E-01   0.0000000E+00  0.1000000E+01  0.6503366E-15
 -0.5415568E-01  0.5408174E-01  0.3195251E-01   0.0000000E+00  0.1000000E+01  0.6503366E-15
 -0.3973033E-01  0.5408174E-01  0.4873707E-01   0.0000000E+00  0.1000000E+01  0.6503366E-15
  0.3973033E-01  0.5408174E-01  0.4873707E-01   0.0000000E+00  0.1000000E+01  0.6503366E-15
           4
  0.5415568E-01 -0.5408174E-01 -0.3195251E-01   0.7583944E+00  0.3027849E-15 -0.6517959E+00
  0.3973033E-01 -0.5408174E-01 -0.4873707E-01   0.7583944E+00  0.3027849E-15 -0.6517959E+00
  0.3973033E-01  0.5408174E-01 -0.4873707E-01   0.7583944E+00  0.3027849E-15 -0.6517959E+00
  0.5415568E-01  0.5408174E-01 -0.3195251E-01   0.7583944E+00  0.3027849E-15 -0.6517959E+00
           4
  0.3973033E-01 -0.5408174E-01  0.4873707E-01   0.9843927E+00  0.4425780E-16  0.1759857E+00
  0.5415568E-01 -0.5408174E-01 -0.3195251E-01   0.9843927E+00  0.4425780E-16  0.1759857E+00
  0.5415568E-01  0.5408174E-01 -0.3195251E-01   0.9843927E+00  0.4425780E-16  0.1759857E+00
  0.3973033E-01  0.5408174E-01  0.4873707E-01   0.9843927E+00  0.4425780E-16  0.1759857E+00
 BRILLOUIN-ZONE-CONVCELL_END
 ATOMS
   19    0.0221444320    4.5985078260    0.1243896190   -0.0000058000   -0.0000191300    0.0001052700
   19    2.7241565390    0.0461732470    0.0169611160   -0.0000104500    0.0000377400    0.0000683000
   12    4.4026524420    0.0314218290    5.1432290720   -0.0006432700   -0.0002482900    0.0001121900
   12    4.3137540750    3.1697235970    5.1784497890   -0.0006153100    0.0004703800   -0.0002153900
   12   -0.8282946180    6.1422610130    5.1283036980    0.0000563100    0.0001710200   -0.0000088000
   12    4.3164286370    6.1003485560    5.1328596150    0.0000898200   -0.0004883600   -0.0000563200
   12    7.0284055710    4.5945705880    5.1260785840   -0.0001690400    0.0002685500    0.0003039700
   12    1.7659576820    7.6631008340    5.1190388490    0.0000084200    0.0000126500   -0.0002718400
   12    7.0563334480    7.6986370640    5.1342683930    0.0004175600   -0.0002882600    0.0001028200
   12    1.8187085010    1.5982118490    5.1160870710   -0.0000375200    0.0001219300   -0.0001102500
   12    7.0166992990    1.5873192890    5.1364855520    0.0005310000   -0.0002739500   -0.0000722000
   14    0.0263541680    1.5430062600    2.2611492680   -0.0001907100   -0.0000936500   -0.0003348800
   14    5.3389989800    1.5392808750    2.3574782620    0.0000577500   -0.0001600500   -0.0000100700
   14    3.4505487320    1.5166282950    7.9520423050   -0.0003868300    0.0000545400   -0.0001832500
   14    8.7579896170    1.5376811490    7.9182279170    0.0004193500    0.0001689100    0.0002986600
   14    3.5536065420    7.6879472320    7.8762213710    0.0000076100    0.0000300200    0.0001214500
   14    8.8845517850    7.7058826080    7.8691000010    0.0002516800   -0.0000333800    0.0001151900
   14   -0.0483271440    7.6987234020    2.3671073720   -0.0000134300   -0.0002845700   -0.0001366000
   14    5.2605540080    7.7155993540    2.4024516940   -0.0001870300   -0.0000332900   -0.0001127800
   14    2.6192868690    6.1851273260    2.3466913510   -0.0003041300    0.0002729600    0.0003895100
   14    7.9334291120    6.1750393620    2.3782462220   -0.0000630300   -0.0000580900   -0.0000950000
   14    0.8811851580    6.1858092310    7.8906166420    0.0002086600   -0.0004753300    0.0002673200
   14    6.2199416740    6.1618499980    7.8897450290    0.0002090900    0.0001407600    0.0001762000
   13    0.7509862610    3.0586334810    7.9781242970    0.0000090900    0.0000116700   -0.0000176100
   13    6.0724678120    3.0773572330    7.8917993920    0.0001795600   -0.0003126800    0.0002179500
   13    2.7027148490    3.0957659470    2.3726547220    0.0000284100   -0.0000551200    0.0002948000
   13    8.0328285900    3.0782583880    2.3050177260   -0.0002371700    0.0000662400   -0.0000845700
    8   -0.0840586040    1.5880661560    3.9380820700    0.0000812800   -0.0004322700   -0.0002007600
    8    5.2873239550    1.5261424210    3.9902023950    0.0000909500   -0.0001598800   -0.0000606300
    8    3.5077140970    1.5185528940    6.3183307020    0.0001477100   -0.0001572900   -0.0001791000
    8    8.8614475250    1.5787230230    6.2567181700   -0.0008874800   -0.0000767400    0.0001423200
    8    3.5342178210    7.7077956000    6.2572519510    0.0000272500    0.0003424700    0.0001402000
    8    8.8664721670    7.6728864240    6.2430990490    0.0001729500    0.0000212200    0.0000281000
    8   -0.0430538260    7.6825604560    3.9900616140    0.0003137300    0.0001612300   -0.0001396300
    8    5.2799921580    7.6952418480    4.0242363320    0.0002106400    0.0005344000   -0.0001478200
    8    2.6519950590    6.2808717600    3.9453922300   -0.0000316100    0.0006255300   -0.0000846200
    8    7.9952253140    6.1607371310    4.0121366740    0.0003718900    0.0001000200    0.0000392200
    8    0.8227571480    6.2758776600    6.2897769730   -0.0000726800    0.0002604800    0.0000663900
    8    6.2237473420    6.1765325180    6.2591841520    0.0000642400   -0.0001915600    0.0000230600
    8    0.6055905910    2.9381299290    6.2141477310    0.0002382600    0.0000447400    0.0001059500
    8    6.1519309240    3.0962660060    6.1527321830   -0.0000539500   -0.0002592400    0.0000918900
    8    2.6280038670    3.0634957390    4.0902263260    0.0001280800   -0.0005637400    0.0003313200
    8    8.1173537460    3.0895081980    4.0851788930   -0.0000252400    0.0000811400   -0.0001906900
    8    1.4977938480    1.9357093180    1.7292680730   -0.0000587000    0.0002278400   -0.0005248300
    8    6.8287512260    1.9073407420    1.8035201920    0.0000062700   -0.0002196600    0.0002107900
    8    1.9706506630    1.9221109210    8.5172075740    0.0001018000    0.0005209500   -0.0001414100
    8    7.2701271980    1.8780003360    8.4495949360    0.0002435600   -0.0002281700    0.0000903100
    8   -0.2940488590    9.2227647640    1.7941116600    0.0002835700   -0.0003509400   -0.0001843200
    8    5.0263819370    9.2301808250    1.7977786950   -0.0000271300   -0.0001045600   -0.0001533000
    8    3.7284091370    9.2021662090    8.5020037800   -0.0001063300    0.0000409400   -0.0000079600
    8    9.1264022260    9.2363513180    8.4263077420   -0.0002938800   -0.0001200600   -0.0000589600
    8    2.1380510340    7.1008234420    8.5036416440   -0.0002794800    0.0003513500   -0.0001505800
    8    7.4532303990    7.1449399600    8.4668167210    0.0003069800    0.0002024000    0.0003304200
    8    1.3740755870    7.1511000720    1.7391836770   -0.0000632800    0.0000204500   -0.0003831600
    8    6.7193470340    7.1740254060    1.8254414340    0.0000194900    0.0001533100    0.0000419600
    8    4.0531363260    6.8109958470    1.7288231610   -0.0002266600   -0.0001737300    0.0000735600
    8    9.3517561280    6.8020388440    1.7651422910   -0.0000135900   -0.0000502700   -0.0002405100
    8   -0.5406513960    6.8173295140    8.5251740180    0.0002906300    0.0001330900   -0.0002855700
    8    4.8289614430    6.8406360010    8.4977710840   -0.0000940300   -0.0001391400    0.0003715000
    8    2.4185623050    4.7164726160    1.6924591610    0.0001135800   -0.0000513700    0.0001783500
    8    7.6950490820    4.7095942680    1.7283285520   -0.0000519000    0.0001918800   -0.0000698600
    8    1.0332257830    4.6982886000    8.5169693910   -0.0001080300    0.0000236400   -0.0002605700
    8    6.4470707110    4.6939106820    8.5410870590    0.0000736200    0.0001897400    0.0001092500
    8   -0.8215673730    2.5550002310    8.5948969940    0.0001395400    0.0000562700   -0.0000306400
    8    4.5910981180    2.4530167240    8.6246926070   -0.0001857400   -0.0000937600   -0.0000510700
    8    4.2483086310    2.5388927330    1.6900950780   -0.0001956800   -0.0003340400   -0.0000570900
    8    9.5407541390    2.4939866190    1.6141195080   -0.0000661400   -0.0000612500   -0.0000274500
    8   -0.0372242160    4.5061534610    4.0432875510    0.0000138400    0.0003443600   -0.0002950300
    8    5.3134949050    4.6592205530    4.0451183980    0.0003310500    0.0000785800    0.0002813700
    8    3.6601423930    4.6770185510    6.3893221350   -0.0001082900    0.0001860900    0.0000308100
    8    8.8902317860    4.5629281860    6.1474989360    0.0001367900   -0.0000579700    0.0001328800
    8    2.6294562400    0.0050094950    4.1021426490    0.0001403400   -0.0001213600    0.0003364400
    8    7.9654260990    0.0112212630    4.1230721090    0.0000930600   -0.0002749100    0.0003577600
    8    0.8506867280    0.0212902020    6.0987668720   -0.0000542600    0.0005998700   -0.0000086500
    8    6.1867407130    9.2403650090    6.1669269290   -0.0001721700    0.0000832100    0.0003464500
    1    0.9517781320    4.4347146830    4.1307414380   -0.0000566700    0.0002270800   -0.0001819500
    1    5.2702396570    4.5875264120    3.0823773400   -0.0005229200   -0.0000472500    0.0001317000
    1    2.6907987270    4.6921304180    6.3007723170   -0.0002157900   -0.0000695400   -0.0004073900
    1    8.9052782920    4.4539145630    7.1121681730    0.0007768800    0.0000188300   -0.0002688400
    1    2.6813339570    0.0957605570    3.1416407460   -0.0003128400    0.0001247300    0.0003108100
    1    7.9321249080    0.1139174360    3.1619371020   -0.0000538500   -0.0000496400   -0.0006210100
    1    0.8533727920    0.1149125260    7.0614679090    0.0000206700    0.0000471400   -0.0003676200
    1    6.1970780890    0.1274901890    7.1247146100    0.0000434200   -0.0001895300    0.0003833600
   22   -0.8093299080    3.0851857710    5.0603894050   -0.0002235100   -0.0001743800    0.0002780800
   19    3.4625359670    4.5535636320   10.0621303400    0.0000203300    0.0000727300    0.0000432300
   19    6.0660599450    0.1019029740   10.2378909060    0.0001750600    0.0000147200    0.0000008000
   12    9.7309795270    9.2192170670    5.1257495660   -0.0002262500   -0.0003314100   -0.0000913400
 FRAMES
1      0.0000000000    0.0000000000    0.0000000000     10.6512137660    0.0000000000    0.0000000000
1      0.0000000000    0.0000000000    0.0000000000      0.0000000000    9.2452642000    0.0000000000
1      0.0000000000    0.0000000000    0.0000000000     -1.8340857540    0.0000000000   10.2591319360
1     -1.8340857540    0.0000000000   10.2591319360      8.8171280120    0.0000000000   10.2591319360
1     -1.8340857540    0.0000000000   10.2591319360     -1.8340857540    9.2452642000   10.2591319360
1      0.0000000000    9.2452642000    0.0000000000     10.6512137660    9.2452642000    0.0000000000
1      0.0000000000    9.2452642000    0.0000000000     -1.8340857540    9.2452642000   10.2591319360
1     -1.8340857540    9.2452642000   10.2591319360      8.8171280120    9.2452642000   10.2591319360
1     10.6512137660    0.0000000000    0.0000000000     10.6512137660    9.2452642000    0.0000000000
1     10.6512137660    0.0000000000    0.0000000000      8.8171280120    0.0000000000   10.2591319360
1      8.8171280120    0.0000000000   10.2591319360      8.8171280120    9.2452642000   10.2591319360
1     10.6512137660    9.2452642000    0.0000000000      8.8171280120    9.2452642000   10.2591319360
