 INFO
nunit      1    1    1
unit   cell
celltype   primcell
shape   parapipedal
 END_INFO
 DIM-GROUP
           3           1
 PRIMVEC
    5.3066365060    0.0000000000    0.0000000000
    0.0000000000    9.1824397150    0.0000000000
   -1.8486162710    0.0000000000   10.2666978650
 CONVVEC
    5.3066365060    0.0000000000    0.0000000000
    0.0000000000    9.1824397150    0.0000000000
   -1.8486162710    0.0000000000   10.2666978650
 PRIMCOORD
          44           1
 19      0.0000000000     4.5728051230     0.0000000000     0.0000000000    -0.0003718700     0.0000000000
 19      2.6533191560     0.0428493740     0.0000000000     0.0000000000     0.0002716700     0.0000000000
 12     -0.9243084810     0.0816888250     5.1333481140     0.0000000000     0.0001470000     0.0000000000
 12     -0.9243084810     6.0764098860     5.1333481140     0.0000000000    -0.0000532200     0.0000000000
 12      1.7290106750     4.4997871230     5.1333481140     0.0000000000     0.0005639000     0.0000000000
 12      1.7290106750     7.6660378340     5.1333481140     0.0000000000     0.0001073100     0.0000000000
 12      1.7290106750     1.6021280560     5.1333481140     0.0000000000    -0.0003695000     0.0000000000
 14      0.0481916130     1.5439329370     2.3365332570     0.0000814900     0.0000081100    -0.0000685600
 14      3.4098296830     1.5439329370     7.9301632690    -0.0000814900     0.0000081100     0.0000685600
 14      3.5520224230     7.6724303000     7.8597653990     0.0000179300    -0.0000946400     0.0003395300
 14     -0.0940010080     7.6724303000     2.4069306750    -0.0000179300    -0.0000946400    -0.0003395300
 14      2.5556156730     6.1249969460     2.3759326190    -0.0000178100     0.0002065300    -0.0002074400
 14      0.9024057310     6.1249969460     7.8907633110     0.0000178100     0.0002065300     0.0002074400
 13      0.7412453020     3.0490731340     7.9218095810    -0.0000339400     0.0000796300     0.0001578500
 13      2.7167760750     3.0490731340     2.3448864930     0.0000339400     0.0000796300    -0.0001578500
  8     -0.0364121940     1.5446799260     3.9741880000     0.0000138800    -0.0000919000    -0.0001461500
  8      3.4944333900     1.5446799260     6.2925082280    -0.0000138800    -0.0000919000     0.0001461500
  8      3.5218155600     7.6431754610     6.2408818590     0.0000029400    -0.0000099300     0.0003062400
  8     -0.0637941570     7.6431754610     4.0258140710    -0.0000029400    -0.0000099300    -0.0003062400
  8      2.5860237420     6.1309468630     4.0047048450     0.0000332400    -0.0003454000    -0.0002757000
  8      0.8719975520     6.1309468630     6.2619916910    -0.0000332400    -0.0003454000     0.0002757000
  8      0.7911527940     3.0568709260     6.1876546430     0.0001391800     0.0000503100     0.0001081900
  8      2.6668687150     3.0568709260     4.0790415850    -0.0001391800     0.0000503100    -0.0001081900
  8      1.5406983420     1.8569305800     1.7600546010    -0.0001805700    -0.0001198100     0.0003494500
  8      1.9173230640     1.8569305800     8.5066413190     0.0001805700    -0.0001198100    -0.0003494500
  8      4.9757906420     9.1803324510     1.7976216960    -0.0002323400     0.0000189900     0.0001699100
  8     -1.5177693140     9.1803324510     8.4690740700     0.0002323400     0.0000189900    -0.0001699100
  8      2.1215610180     7.1085237860     8.4727414760     0.0001640100     0.0001531600    -0.0001804200
  8      1.3364602760     7.1085237860     1.7939550600    -0.0001640100     0.0001531600     0.0001804200
  8      3.9826172330     6.7587892480     1.7848509590     0.0000752000    -0.0002752500     0.0002597700
  8     -0.5245957750     6.7587892480     8.4818451150    -0.0000752000    -0.0002752500    -0.0002597700
  8      2.3421532840     4.6672564300     1.7070980650    -0.0002476800     0.0000670400     0.0001257100
  8      1.1158678230     4.6672564300     8.5595986250     0.0002476800     0.0000670400    -0.0001257100
  8     -0.8300209040     2.5817924470     8.5880870760     0.0000439800     0.0002052100    -0.0000984800
  8      4.2880421750     2.5817924470     1.6786091520    -0.0000439800     0.0002052100     0.0000984800
  8     -0.0637460980     4.5570828170     4.0887293900     0.0000610600    -0.0001939500     0.0000865600
  8      3.5217673130     4.5570828170     6.1779671470    -0.0000610600    -0.0001939500    -0.0000865600
  8      2.6174098170     0.0006905590     4.1042992880    -0.0000124100     0.0002493700     0.0001149200
  8      0.8406115880     0.0006905590     6.1623966320     0.0000124100     0.0002493700    -0.0001149200
  1     -0.1056023520     4.3873124990     3.1355634850    -0.0000354600    -0.0000855500    -0.0001179300
  1      3.5636238850     4.3873124990     7.1311330510     0.0000354600    -0.0000855500     0.0001179300
  1      2.5951823180     0.1593491340     3.1505993170    -0.0000126700    -0.0001140800     0.0000485700
  1      0.8628391360     0.1593491340     7.1160972200     0.0000126700    -0.0001140800    -0.0000485700
 26     -0.9243084810     3.0586955380     5.1333481140     0.0000000000     0.0002890700     0.0000000000
 CONVCOORD
          44           1
 19      0.0000000000     4.5728051230     0.0000000000
 19      2.6533191560     0.0428493740     0.0000000000
 12     -0.9243084810     0.0816888250     5.1333481140
 12     -0.9243084810     6.0764098860     5.1333481140
 12      1.7290106750     4.4997871230     5.1333481140
 12      1.7290106750     7.6660378340     5.1333481140
 12      1.7290106750     1.6021280560     5.1333481140
 14      0.0481916130     1.5439329370     2.3365332570
 14      3.4098296830     1.5439329370     7.9301632690
 14      3.5520224230     7.6724303000     7.8597653990
 14     -0.0940010080     7.6724303000     2.4069306750
 14      2.5556156730     6.1249969460     2.3759326190
 14      0.9024057310     6.1249969460     7.8907633110
 13      0.7412453020     3.0490731340     7.9218095810
 13      2.7167760750     3.0490731340     2.3448864930
  8     -0.0364121940     1.5446799260     3.9741880000
  8      3.4944333900     1.5446799260     6.2925082280
  8      3.5218155600     7.6431754610     6.2408818590
  8     -0.0637941570     7.6431754610     4.0258140710
  8      2.5860237420     6.1309468630     4.0047048450
  8      0.8719975520     6.1309468630     6.2619916910
  8      0.7911527940     3.0568709260     6.1876546430
  8      2.6668687150     3.0568709260     4.0790415850
  8      1.5406983420     1.8569305800     1.7600546010
  8      1.9173230640     1.8569305800     8.5066413190
  8      4.9757906420     9.1803324510     1.7976216960
  8     -1.5177693140     9.1803324510     8.4690740700
  8      2.1215610180     7.1085237860     8.4727414760
  8      1.3364602760     7.1085237860     1.7939550600
  8      3.9826172330     6.7587892480     1.7848509590
  8     -0.5245957750     6.7587892480     8.4818451150
  8      2.3421532840     4.6672564300     1.7070980650
  8      1.1158678230     4.6672564300     8.5595986250
  8     -0.8300209040     2.5817924470     8.5880870760
  8      4.2880421750     2.5817924470     1.6786091520
  8     -0.0637460980     4.5570828170     4.0887293900
  8      3.5217673130     4.5570828170     6.1779671470
  8      2.6174098170     0.0006905590     4.1042992880
  8      0.8406115880     0.0006905590     6.1623966320
  1     -0.1056023520     4.3873124990     3.1355634850
  1      3.5636238850     4.3873124990     7.1311330510
  1      2.5951823180     0.1593491340     3.1505993170
  1      0.8628391360     0.1593491340     7.1160972200
 26     -0.9243084810     3.0586955380     5.1333481140
 RECIP-PRIMVEC
    0.1884432821   -0.0000000000    0.0339309992

    0.0000000000    0.1089035192   -0.0000000000

    0.0000000000    0.0000000000    0.0974023014

 RECIP-CONVVEC
    0.1884432821   -0.0000000000    0.0339309992

    0.0000000000    0.1089035192   -0.0000000000

    0.0000000000    0.0000000000    0.0974023014

 WIGNER-SEITZ-PRIMCELL
           4
 -0.2653318E+01  0.4591220E+01 -0.4822024E+01  -0.3191993E+00  0.5412325E-17 -0.9476876E+00
 -0.8047020E+00  0.4591220E+01 -0.5444674E+01  -0.3191993E+00  0.5412325E-17 -0.9476876E+00
 -0.8047020E+00 -0.4591220E+01 -0.5444674E+01  -0.3191993E+00  0.5412325E-17 -0.9476876E+00
 -0.2653318E+01 -0.4591220E+01 -0.4822024E+01  -0.3191993E+00  0.5412325E-17 -0.9476876E+00
           4
 -0.2653318E+01  0.4591220E+01  0.4822024E+01  -0.1000000E+01  0.4836288E-16 -0.4604801E-16
 -0.2653318E+01  0.4591220E+01 -0.4822024E+01  -0.1000000E+01  0.4836288E-16 -0.4604801E-16
 -0.2653318E+01 -0.4591220E+01 -0.4822024E+01  -0.1000000E+01  0.4836288E-16 -0.4604801E-16
 -0.2653318E+01 -0.4591220E+01  0.4822024E+01  -0.1000000E+01  0.4836288E-16 -0.4604801E-16
           6
  0.2653318E+01 -0.4591220E+01  0.4822024E+01  -0.0000000E+00 -0.1000000E+01 -0.5376100E-15
  0.8047020E+00 -0.4591220E+01  0.5444674E+01  -0.0000000E+00 -0.1000000E+01 -0.5376100E-15
 -0.2653318E+01 -0.4591220E+01  0.4822024E+01  -0.0000000E+00 -0.1000000E+01 -0.5376100E-15
 -0.2653318E+01 -0.4591220E+01 -0.4822024E+01  -0.0000000E+00 -0.1000000E+01 -0.5376100E-15
 -0.8047020E+00 -0.4591220E+01 -0.5444674E+01  -0.0000000E+00 -0.1000000E+01 -0.5376100E-15
  0.2653318E+01 -0.4591220E+01 -0.4822024E+01  -0.0000000E+00 -0.1000000E+01 -0.5376100E-15
           4
  0.2653318E+01  0.4591220E+01 -0.4822024E+01   0.1772097E+00 -0.1101149E-15 -0.9841731E+00
  0.2653318E+01 -0.4591220E+01 -0.4822024E+01   0.1772097E+00 -0.1101149E-15 -0.9841731E+00
 -0.8047020E+00 -0.4591220E+01 -0.5444674E+01   0.1772097E+00 -0.1101149E-15 -0.9841731E+00
 -0.8047020E+00  0.4591220E+01 -0.5444674E+01   0.1772097E+00 -0.1101149E-15 -0.9841731E+00
           4
 -0.2653318E+01  0.4591220E+01  0.4822024E+01  -0.1772097E+00  0.1101149E-15  0.9841731E+00
 -0.2653318E+01 -0.4591220E+01  0.4822024E+01  -0.1772097E+00  0.1101149E-15  0.9841731E+00
  0.8047020E+00 -0.4591220E+01  0.5444674E+01  -0.1772097E+00  0.1101149E-15  0.9841731E+00
  0.8047020E+00  0.4591220E+01  0.5444674E+01  -0.1772097E+00  0.1101149E-15  0.9841731E+00
           6
  0.2653318E+01  0.4591220E+01 -0.4822024E+01   0.1673713E-15  0.1000000E+01  0.5376100E-15
 -0.8047020E+00  0.4591220E+01 -0.5444674E+01   0.1673713E-15  0.1000000E+01  0.5376100E-15
 -0.2653318E+01  0.4591220E+01 -0.4822024E+01   0.1673713E-15  0.1000000E+01  0.5376100E-15
 -0.2653318E+01  0.4591220E+01  0.4822024E+01   0.1673713E-15  0.1000000E+01  0.5376100E-15
  0.8047020E+00  0.4591220E+01  0.5444674E+01   0.1673713E-15  0.1000000E+01  0.5376100E-15
  0.2653318E+01  0.4591220E+01  0.4822024E+01   0.1673713E-15  0.1000000E+01  0.5376100E-15
           4
  0.2653318E+01  0.4591220E+01  0.4822024E+01   0.1000000E+01 -0.4836288E-16  0.8908056E-32
  0.2653318E+01 -0.4591220E+01  0.4822024E+01   0.1000000E+01 -0.4836288E-16  0.8908056E-32
  0.2653318E+01 -0.4591220E+01 -0.4822024E+01   0.1000000E+01 -0.4836288E-16  0.8908056E-32
  0.2653318E+01  0.4591220E+01 -0.4822024E+01   0.1000000E+01 -0.4836288E-16  0.8908056E-32
           4
  0.8047020E+00 -0.4591220E+01  0.5444674E+01   0.3191993E+00 -0.2314703E-15  0.9476876E+00
  0.2653318E+01 -0.4591220E+01  0.4822024E+01   0.3191993E+00 -0.2314703E-15  0.9476876E+00
  0.2653318E+01  0.4591220E+01  0.4822024E+01   0.3191993E+00 -0.2314703E-15  0.9476876E+00
  0.8047020E+00  0.4591220E+01  0.5444674E+01   0.3191993E+00 -0.2314703E-15  0.9476876E+00
 WIGNER-SEITZ-PRIMCELL_END
 WIGNER-SEITZ-CONVCELL
           4
 -0.2653318E+01  0.4591220E+01 -0.4822024E+01  -0.3191993E+00  0.5412325E-17 -0.9476876E+00
 -0.8047020E+00  0.4591220E+01 -0.5444674E+01  -0.3191993E+00  0.5412325E-17 -0.9476876E+00
 -0.8047020E+00 -0.4591220E+01 -0.5444674E+01  -0.3191993E+00  0.5412325E-17 -0.9476876E+00
 -0.2653318E+01 -0.4591220E+01 -0.4822024E+01  -0.3191993E+00  0.5412325E-17 -0.9476876E+00
           4
 -0.2653318E+01  0.4591220E+01  0.4822024E+01  -0.1000000E+01  0.4836288E-16 -0.4604801E-16
 -0.2653318E+01  0.4591220E+01 -0.4822024E+01  -0.1000000E+01  0.4836288E-16 -0.4604801E-16
 -0.2653318E+01 -0.4591220E+01 -0.4822024E+01  -0.1000000E+01  0.4836288E-16 -0.4604801E-16
 -0.2653318E+01 -0.4591220E+01  0.4822024E+01  -0.1000000E+01  0.4836288E-16 -0.4604801E-16
           6
  0.2653318E+01 -0.4591220E+01  0.4822024E+01  -0.0000000E+00 -0.1000000E+01 -0.5376100E-15
  0.8047020E+00 -0.4591220E+01  0.5444674E+01  -0.0000000E+00 -0.1000000E+01 -0.5376100E-15
 -0.2653318E+01 -0.4591220E+01  0.4822024E+01  -0.0000000E+00 -0.1000000E+01 -0.5376100E-15
 -0.2653318E+01 -0.4591220E+01 -0.4822024E+01  -0.0000000E+00 -0.1000000E+01 -0.5376100E-15
 -0.8047020E+00 -0.4591220E+01 -0.5444674E+01  -0.0000000E+00 -0.1000000E+01 -0.5376100E-15
  0.2653318E+01 -0.4591220E+01 -0.4822024E+01  -0.0000000E+00 -0.1000000E+01 -0.5376100E-15
           4
  0.2653318E+01  0.4591220E+01 -0.4822024E+01   0.1772097E+00 -0.1101149E-15 -0.9841731E+00
  0.2653318E+01 -0.4591220E+01 -0.4822024E+01   0.1772097E+00 -0.1101149E-15 -0.9841731E+00
 -0.8047020E+00 -0.4591220E+01 -0.5444674E+01   0.1772097E+00 -0.1101149E-15 -0.9841731E+00
 -0.8047020E+00  0.4591220E+01 -0.5444674E+01   0.1772097E+00 -0.1101149E-15 -0.9841731E+00
           4
 -0.2653318E+01  0.4591220E+01  0.4822024E+01  -0.1772097E+00  0.1101149E-15  0.9841731E+00
 -0.2653318E+01 -0.4591220E+01  0.4822024E+01  -0.1772097E+00  0.1101149E-15  0.9841731E+00
  0.8047020E+00 -0.4591220E+01  0.5444674E+01  -0.1772097E+00  0.1101149E-15  0.9841731E+00
  0.8047020E+00  0.4591220E+01  0.5444674E+01  -0.1772097E+00  0.1101149E-15  0.9841731E+00
           6
  0.2653318E+01  0.4591220E+01 -0.4822024E+01   0.1673713E-15  0.1000000E+01  0.5376100E-15
 -0.8047020E+00  0.4591220E+01 -0.5444674E+01   0.1673713E-15  0.1000000E+01  0.5376100E-15
 -0.2653318E+01  0.4591220E+01 -0.4822024E+01   0.1673713E-15  0.1000000E+01  0.5376100E-15
 -0.2653318E+01  0.4591220E+01  0.4822024E+01   0.1673713E-15  0.1000000E+01  0.5376100E-15
  0.8047020E+00  0.4591220E+01  0.5444674E+01   0.1673713E-15  0.1000000E+01  0.5376100E-15
  0.2653318E+01  0.4591220E+01  0.4822024E+01   0.1673713E-15  0.1000000E+01  0.5376100E-15
           4
  0.2653318E+01  0.4591220E+01  0.4822024E+01   0.1000000E+01 -0.4836288E-16  0.8908056E-32
  0.2653318E+01 -0.4591220E+01  0.4822024E+01   0.1000000E+01 -0.4836288E-16  0.8908056E-32
  0.2653318E+01 -0.4591220E+01 -0.4822024E+01   0.1000000E+01 -0.4836288E-16  0.8908056E-32
  0.2653318E+01  0.4591220E+01 -0.4822024E+01   0.1000000E+01 -0.4836288E-16  0.8908056E-32
           4
  0.8047020E+00 -0.4591220E+01  0.5444674E+01   0.3191993E+00 -0.2314703E-15  0.9476876E+00
  0.2653318E+01 -0.4591220E+01  0.4822024E+01   0.3191993E+00 -0.2314703E-15  0.9476876E+00
  0.2653318E+01  0.4591220E+01  0.4822024E+01   0.3191993E+00 -0.2314703E-15  0.9476876E+00
  0.8047020E+00  0.4591220E+01  0.5444674E+01   0.3191993E+00 -0.2314703E-15  0.9476876E+00
 WIGNER-SEITZ-CONVCELL_END
 BRILLOUIN-ZONE-PRIMCELL
           4
  0.9993595E-01  0.5445176E-01 -0.1477015E-01   0.9476876E+00 -0.2780590E-16 -0.3191993E+00
  0.9993595E-01 -0.5445176E-01 -0.1477015E-01   0.9476876E+00 -0.2780590E-16 -0.3191993E+00
  0.8850734E-01 -0.5445176E-01 -0.4870115E-01   0.9476876E+00 -0.2780590E-16 -0.3191993E+00
  0.8850734E-01  0.5445176E-01 -0.4870115E-01   0.9476876E+00 -0.2780590E-16 -0.3191993E+00
           4
 -0.8850734E-01  0.5445176E-01 -0.4870115E-01   0.0000000E+00 -0.1986744E-16 -0.1000000E+01
  0.8850734E-01  0.5445176E-01 -0.4870115E-01   0.0000000E+00 -0.1986744E-16 -0.1000000E+01
  0.8850734E-01 -0.5445176E-01 -0.4870115E-01   0.0000000E+00 -0.1986744E-16 -0.1000000E+01
 -0.8850734E-01 -0.5445176E-01 -0.4870115E-01   0.0000000E+00 -0.1986744E-16 -0.1000000E+01
           6
  0.8850734E-01 -0.5445176E-01  0.4870115E-01  -0.0000000E+00 -0.1000000E+01  0.0000000E+00
 -0.8850734E-01 -0.5445176E-01  0.4870115E-01  -0.0000000E+00 -0.1000000E+01  0.0000000E+00
 -0.9993595E-01 -0.5445176E-01  0.1477015E-01  -0.0000000E+00 -0.1000000E+01  0.0000000E+00
 -0.8850734E-01 -0.5445176E-01 -0.4870115E-01  -0.0000000E+00 -0.1000000E+01  0.0000000E+00
  0.8850734E-01 -0.5445176E-01 -0.4870115E-01  -0.0000000E+00 -0.1000000E+01  0.0000000E+00
  0.9993595E-01 -0.5445176E-01 -0.1477015E-01  -0.0000000E+00 -0.1000000E+01  0.0000000E+00
           4
  0.8850734E-01 -0.5445176E-01  0.4870115E-01   0.9841731E+00  0.1000895E-15  0.1772097E+00
  0.9993595E-01 -0.5445176E-01 -0.1477015E-01   0.9841731E+00  0.1000895E-15  0.1772097E+00
  0.9993595E-01  0.5445176E-01 -0.1477015E-01   0.9841731E+00  0.1000895E-15  0.1772097E+00
  0.8850734E-01  0.5445176E-01  0.4870115E-01   0.9841731E+00  0.1000895E-15  0.1772097E+00
           4
 -0.8850734E-01  0.5445176E-01 -0.4870115E-01  -0.9841731E+00  0.1543698E-15 -0.1772097E+00
 -0.8850734E-01 -0.5445176E-01 -0.4870115E-01  -0.9841731E+00  0.1543698E-15 -0.1772097E+00
 -0.9993595E-01 -0.5445176E-01  0.1477015E-01  -0.9841731E+00  0.1543698E-15 -0.1772097E+00
 -0.9993595E-01  0.5445176E-01  0.1477015E-01  -0.9841731E+00  0.1543698E-15 -0.1772097E+00
           6
  0.9993595E-01  0.5445176E-01 -0.1477015E-01   0.0000000E+00  0.1000000E+01 -0.0000000E+00
  0.8850734E-01  0.5445176E-01 -0.4870115E-01   0.0000000E+00  0.1000000E+01 -0.0000000E+00
 -0.8850734E-01  0.5445176E-01 -0.4870115E-01   0.0000000E+00  0.1000000E+01 -0.0000000E+00
 -0.9993595E-01  0.5445176E-01  0.1477015E-01   0.0000000E+00  0.1000000E+01 -0.0000000E+00
 -0.8850734E-01  0.5445176E-01  0.4870115E-01   0.0000000E+00  0.1000000E+01 -0.0000000E+00
  0.8850734E-01  0.5445176E-01  0.4870115E-01   0.0000000E+00  0.1000000E+01 -0.0000000E+00
           4
  0.8850734E-01 -0.5445176E-01  0.4870115E-01  -0.0000000E+00 -0.0000000E+00  0.1000000E+01
  0.8850734E-01  0.5445176E-01  0.4870115E-01  -0.0000000E+00 -0.0000000E+00  0.1000000E+01
 -0.8850734E-01  0.5445176E-01  0.4870115E-01  -0.0000000E+00 -0.0000000E+00  0.1000000E+01
 -0.8850734E-01 -0.5445176E-01  0.4870115E-01  -0.0000000E+00 -0.0000000E+00  0.1000000E+01
           4
 -0.8850734E-01  0.5445176E-01  0.4870115E-01  -0.9476876E+00 -0.1177231E-15  0.3191993E+00
 -0.9993595E-01  0.5445176E-01  0.1477015E-01  -0.9476876E+00 -0.1177231E-15  0.3191993E+00
 -0.9993595E-01 -0.5445176E-01  0.1477015E-01  -0.9476876E+00 -0.1177231E-15  0.3191993E+00
 -0.8850734E-01 -0.5445176E-01  0.4870115E-01  -0.9476876E+00 -0.1177231E-15  0.3191993E+00
 BRILLOUIN-ZONE-PRIMCELL_END
 BRILLOUIN-ZONE-CONVCELL
           4
  0.9993595E-01  0.5445176E-01 -0.1477015E-01   0.9476876E+00 -0.2780590E-16 -0.3191993E+00
  0.9993595E-01 -0.5445176E-01 -0.1477015E-01   0.9476876E+00 -0.2780590E-16 -0.3191993E+00
  0.8850734E-01 -0.5445176E-01 -0.4870115E-01   0.9476876E+00 -0.2780590E-16 -0.3191993E+00
  0.8850734E-01  0.5445176E-01 -0.4870115E-01   0.9476876E+00 -0.2780590E-16 -0.3191993E+00
           4
 -0.8850734E-01  0.5445176E-01 -0.4870115E-01   0.0000000E+00 -0.1986744E-16 -0.1000000E+01
  0.8850734E-01  0.5445176E-01 -0.4870115E-01   0.0000000E+00 -0.1986744E-16 -0.1000000E+01
  0.8850734E-01 -0.5445176E-01 -0.4870115E-01   0.0000000E+00 -0.1986744E-16 -0.1000000E+01
 -0.8850734E-01 -0.5445176E-01 -0.4870115E-01   0.0000000E+00 -0.1986744E-16 -0.1000000E+01
           6
  0.8850734E-01 -0.5445176E-01  0.4870115E-01  -0.0000000E+00 -0.1000000E+01  0.0000000E+00
 -0.8850734E-01 -0.5445176E-01  0.4870115E-01  -0.0000000E+00 -0.1000000E+01  0.0000000E+00
 -0.9993595E-01 -0.5445176E-01  0.1477015E-01  -0.0000000E+00 -0.1000000E+01  0.0000000E+00
 -0.8850734E-01 -0.5445176E-01 -0.4870115E-01  -0.0000000E+00 -0.1000000E+01  0.0000000E+00
  0.8850734E-01 -0.5445176E-01 -0.4870115E-01  -0.0000000E+00 -0.1000000E+01  0.0000000E+00
  0.9993595E-01 -0.5445176E-01 -0.1477015E-01  -0.0000000E+00 -0.1000000E+01  0.0000000E+00
           4
  0.8850734E-01 -0.5445176E-01  0.4870115E-01   0.9841731E+00  0.1000895E-15  0.1772097E+00
  0.9993595E-01 -0.5445176E-01 -0.1477015E-01   0.9841731E+00  0.1000895E-15  0.1772097E+00
  0.9993595E-01  0.5445176E-01 -0.1477015E-01   0.9841731E+00  0.1000895E-15  0.1772097E+00
  0.8850734E-01  0.5445176E-01  0.4870115E-01   0.9841731E+00  0.1000895E-15  0.1772097E+00
           4
 -0.8850734E-01  0.5445176E-01 -0.4870115E-01  -0.9841731E+00  0.1543698E-15 -0.1772097E+00
 -0.8850734E-01 -0.5445176E-01 -0.4870115E-01  -0.9841731E+00  0.1543698E-15 -0.1772097E+00
 -0.9993595E-01 -0.5445176E-01  0.1477015E-01  -0.9841731E+00  0.1543698E-15 -0.1772097E+00
 -0.9993595E-01  0.5445176E-01  0.1477015E-01  -0.9841731E+00  0.1543698E-15 -0.1772097E+00
           6
  0.9993595E-01  0.5445176E-01 -0.1477015E-01   0.0000000E+00  0.1000000E+01 -0.0000000E+00
  0.8850734E-01  0.5445176E-01 -0.4870115E-01   0.0000000E+00  0.1000000E+01 -0.0000000E+00
 -0.8850734E-01  0.5445176E-01 -0.4870115E-01   0.0000000E+00  0.1000000E+01 -0.0000000E+00
 -0.9993595E-01  0.5445176E-01  0.1477015E-01   0.0000000E+00  0.1000000E+01 -0.0000000E+00
 -0.8850734E-01  0.5445176E-01  0.4870115E-01   0.0000000E+00  0.1000000E+01 -0.0000000E+00
  0.8850734E-01  0.5445176E-01  0.4870115E-01   0.0000000E+00  0.1000000E+01 -0.0000000E+00
           4
  0.8850734E-01 -0.5445176E-01  0.4870115E-01  -0.0000000E+00 -0.0000000E+00  0.1000000E+01
  0.8850734E-01  0.5445176E-01  0.4870115E-01  -0.0000000E+00 -0.0000000E+00  0.1000000E+01
 -0.8850734E-01  0.5445176E-01  0.4870115E-01  -0.0000000E+00 -0.0000000E+00  0.1000000E+01
 -0.8850734E-01 -0.5445176E-01  0.4870115E-01  -0.0000000E+00 -0.0000000E+00  0.1000000E+01
           4
 -0.8850734E-01  0.5445176E-01  0.4870115E-01  -0.9476876E+00 -0.1177231E-15  0.3191993E+00
 -0.9993595E-01  0.5445176E-01  0.1477015E-01  -0.9476876E+00 -0.1177231E-15  0.3191993E+00
 -0.9993595E-01 -0.5445176E-01  0.1477015E-01  -0.9476876E+00 -0.1177231E-15  0.3191993E+00
 -0.8850734E-01 -0.5445176E-01  0.4870115E-01  -0.9476876E+00 -0.1177231E-15  0.3191993E+00
 BRILLOUIN-ZONE-CONVCELL_END
 ATOMS
   19    0.0000000000    4.5728051230    0.0000000000    0.0000000000   -0.0003718700    0.0000000000
   19    2.6533191560    0.0428493740    0.0000000000    0.0000000000    0.0002716700    0.0000000000
   12   -0.9243084810    0.0816888250    5.1333481140    0.0000000000    0.0001470000    0.0000000000
   12   -0.9243084810    6.0764098860    5.1333481140    0.0000000000   -0.0000532200    0.0000000000
   12    1.7290106750    4.4997871230    5.1333481140    0.0000000000    0.0005639000    0.0000000000
   12    1.7290106750    7.6660378340    5.1333481140    0.0000000000    0.0001073100    0.0000000000
   12    1.7290106750    1.6021280560    5.1333481140    0.0000000000   -0.0003695000    0.0000000000
   14    0.0481916130    1.5439329370    2.3365332570    0.0000814900    0.0000081100   -0.0000685600
   14    3.4098296830    1.5439329370    7.9301632690   -0.0000814900    0.0000081100    0.0000685600
   14    3.5520224230    7.6724303000    7.8597653990    0.0000179300   -0.0000946400    0.0003395300
   14   -0.0940010080    7.6724303000    2.4069306750   -0.0000179300   -0.0000946400   -0.0003395300
   14    2.5556156730    6.1249969460    2.3759326190   -0.0000178100    0.0002065300   -0.0002074400
   14    0.9024057310    6.1249969460    7.8907633110    0.0000178100    0.0002065300    0.0002074400
   13    0.7412453020    3.0490731340    7.9218095810   -0.0000339400    0.0000796300    0.0001578500
   13    2.7167760750    3.0490731340    2.3448864930    0.0000339400    0.0000796300   -0.0001578500
    8   -0.0364121940    1.5446799260    3.9741880000    0.0000138800   -0.0000919000   -0.0001461500
    8    3.4944333900    1.5446799260    6.2925082280   -0.0000138800   -0.0000919000    0.0001461500
    8    3.5218155600    7.6431754610    6.2408818590    0.0000029400   -0.0000099300    0.0003062400
    8   -0.0637941570    7.6431754610    4.0258140710   -0.0000029400   -0.0000099300   -0.0003062400
    8    2.5860237420    6.1309468630    4.0047048450    0.0000332400   -0.0003454000   -0.0002757000
    8    0.8719975520    6.1309468630    6.2619916910   -0.0000332400   -0.0003454000    0.0002757000
    8    0.7911527940    3.0568709260    6.1876546430    0.0001391800    0.0000503100    0.0001081900
    8    2.6668687150    3.0568709260    4.0790415850   -0.0001391800    0.0000503100   -0.0001081900
    8    1.5406983420    1.8569305800    1.7600546010   -0.0001805700   -0.0001198100    0.0003494500
    8    1.9173230640    1.8569305800    8.5066413190    0.0001805700   -0.0001198100   -0.0003494500
    8    4.9757906420    9.1803324510    1.7976216960   -0.0002323400    0.0000189900    0.0001699100
    8   -1.5177693140    9.1803324510    8.4690740700    0.0002323400    0.0000189900   -0.0001699100
    8    2.1215610180    7.1085237860    8.4727414760    0.0001640100    0.0001531600   -0.0001804200
    8    1.3364602760    7.1085237860    1.7939550600   -0.0001640100    0.0001531600    0.0001804200
    8    3.9826172330    6.7587892480    1.7848509590    0.0000752000   -0.0002752500    0.0002597700
    8   -0.5245957750    6.7587892480    8.4818451150   -0.0000752000   -0.0002752500   -0.0002597700
    8    2.3421532840    4.6672564300    1.7070980650   -0.0002476800    0.0000670400    0.0001257100
    8    1.1158678230    4.6672564300    8.5595986250    0.0002476800    0.0000670400   -0.0001257100
    8   -0.8300209040    2.5817924470    8.5880870760    0.0000439800    0.0002052100   -0.0000984800
    8    4.2880421750    2.5817924470    1.6786091520   -0.0000439800    0.0002052100    0.0000984800
    8   -0.0637460980    4.5570828170    4.0887293900    0.0000610600   -0.0001939500    0.0000865600
    8    3.5217673130    4.5570828170    6.1779671470   -0.0000610600   -0.0001939500   -0.0000865600
    8    2.6174098170    0.0006905590    4.1042992880   -0.0000124100    0.0002493700    0.0001149200
    8    0.8406115880    0.0006905590    6.1623966320    0.0000124100    0.0002493700   -0.0001149200
    1   -0.1056023520    4.3873124990    3.1355634850   -0.0000354600   -0.0000855500   -0.0001179300
    1    3.5636238850    4.3873124990    7.1311330510    0.0000354600   -0.0000855500    0.0001179300
    1    2.5951823180    0.1593491340    3.1505993170   -0.0000126700   -0.0001140800    0.0000485700
    1    0.8628391360    0.1593491340    7.1160972200    0.0000126700   -0.0001140800   -0.0000485700
   26   -0.9243084810    3.0586955380    5.1333481140    0.0000000000    0.0002890700    0.0000000000
   19   -1.8486162710    4.5728051230   10.2666978650    0.0000000000   -0.0003718700    0.0000000000
   19    0.8047028850    0.0428493740   10.2666978650    0.0000000000    0.0002716700    0.0000000000
   19    5.3066365060    4.5728051230    0.0000000000    0.0000000000   -0.0003718700    0.0000000000
   12    4.3823280250    0.0816888250    5.1333481140    0.0000000000    0.0001470000    0.0000000000
   12    4.3823280250    6.0764098860    5.1333481140    0.0000000000   -0.0000532200    0.0000000000
   26    4.3823280250    3.0586955380    5.1333481140    0.0000000000    0.0002890700    0.0000000000
   19    3.4580202350    4.5728051230   10.2666978650    0.0000000000   -0.0003718700    0.0000000000
 FRAMES
1      0.0000000000    0.0000000000    0.0000000000      5.3066365060    0.0000000000    0.0000000000
1      0.0000000000    0.0000000000    0.0000000000      0.0000000000    9.1824397150    0.0000000000
1      0.0000000000    0.0000000000    0.0000000000     -1.8486162710    0.0000000000   10.2666978650
1     -1.8486162710    0.0000000000   10.2666978650      3.4580202350    0.0000000000   10.2666978650
1     -1.8486162710    0.0000000000   10.2666978650     -1.8486162710    9.1824397150   10.2666978650
1      0.0000000000    9.1824397150    0.0000000000      5.3066365060    9.1824397150    0.0000000000
1      0.0000000000    9.1824397150    0.0000000000     -1.8486162710    9.1824397150   10.2666978650
1     -1.8486162710    9.1824397150   10.2666978650      3.4580202350    9.1824397150   10.2666978650
1      5.3066365060    0.0000000000    0.0000000000      5.3066365060    9.1824397150    0.0000000000
1      5.3066365060    0.0000000000    0.0000000000      3.4580202350    0.0000000000   10.2666978650
1      3.4580202350    0.0000000000   10.2666978650      3.4580202350    9.1824397150   10.2666978650
1      5.3066365060    9.1824397150    0.0000000000      3.4580202350    9.1824397150   10.2666978650
