 INFO
nunit      1    1    1
unit   cell
celltype   primcell
shape   parapipedal
 END_INFO
 DIM-GROUP
           3           1
 PRIMVEC
    5.2989900630    0.0000000000    0.0000000000
    0.0000000000    9.1953692500    0.0000000000
   -1.8126838200    0.0000000000   10.0463340640
 CONVVEC
    5.2989900630    0.0000000000    0.0000000000
    0.0000000000    9.1953692500    0.0000000000
   -1.8126838200    0.0000000000   10.0463340640
 PRIMCOORD
          44           1
 19      0.0000000000     4.5435585560     0.0000000000     0.0000000000     0.0003829300     0.0000000000
 19      2.6494950310     0.0217057240     0.0000000000     0.0000000000    -0.0002006700     0.0000000000
 12     -0.9063419100     0.0404538420     5.0231670320     0.0000000000     0.0004310600     0.0000000000
 12     -0.9063419100     3.0650229140     5.0231670320     0.0000000000    -0.0002875600     0.0000000000
 12     -0.9063419100     6.1179668310     5.0231670320     0.0000000000    -0.0003461800     0.0000000000
 12      1.7431531220     4.5331493270     5.0231670320     0.0000000000     0.0001824000     0.0000000000
 12      1.7431531220     7.6760598790     5.0231670320     0.0000000000    -0.0001598400     0.0000000000
 12      1.7431531220     1.5848215450     5.0231670320     0.0000000000     0.0002061900     0.0000000000
 14      0.0424194530     1.5179562140     2.2314027000    -0.0000359100    -0.0000549600     0.0001861200
 14      3.4438866620     1.5179562140     7.8149316660     0.0000359100    -0.0000549600    -0.0001861200
 14      3.5586929300     7.6719251720     7.7501419270    -0.0000089700     0.0001085300    -0.0000929500
 14     -0.0723866870     7.6719251720     2.2961921370     0.0000089700     0.0001085300     0.0000929500
 14      2.5734640490     6.1278428060     2.2754756520     0.0000521600    -0.0000181700    -0.0000525100
 14      0.9128422220     6.1278428060     7.7708582620    -0.0000521600    -0.0000181700     0.0000525100
 13      0.7914206650     3.0430900370     7.7977913290    -0.0001327100    -0.0001746800     0.0000822900
 13      2.6948855780     3.0430900370     2.2485427350     0.0001327100    -0.0001746800    -0.0000822900
  8     -0.0212888210     1.5062190380     3.8630563090     0.0000383000    -0.0001488100     0.0002112000
  8      3.5075948530     1.5062190380     6.1832780470    -0.0000383000    -0.0001488100    -0.0002112000
  8      3.5305958760     7.6617464050     6.1322252270    -0.0002269300    -0.0001290300    -0.0002765600
  8     -0.0442896330     7.6617464050     3.9141088380     0.0002269300    -0.0001290300     0.0002765600
  8      2.6074128310     6.1525507670     3.9003806190    -0.0000569200    -0.0000309300     0.0000490700
  8      0.8788934130     6.1525507670     6.1459534460     0.0000569200    -0.0000309300    -0.0000490700
  8      0.8186673270     3.0611124320     6.0679279020     0.0002358400     0.0000365800     0.0000251100
  8      2.6676389160     3.0611124320     3.9784061620    -0.0002358400     0.0000365800    -0.0000251100
  8      1.5275425220     1.8521940440     1.6566672550    -0.0001038800     0.0001312900     0.0000883100
  8      1.9587637760     1.8521940440     8.3896665080     0.0001038800     0.0001312900    -0.0000883100
  8      4.9653989380     9.1705845220     1.6805638170     0.0001392200     0.0001127400    -0.0003409600
  8     -1.4790926680     9.1705845220     8.3657700970    -0.0001392200     0.0001127400     0.0003409600
  8      2.1166822820     7.1290919510     8.3519711070     0.0002389700    -0.0003111300     0.0000683800
  8      1.3696239620     7.1290919510     1.6943629580    -0.0002389700    -0.0003111300    -0.0000683800
  8      4.0144577700     6.7278192660     1.6848820740    -0.0001050800     0.0003822500    -0.0001721100
  8     -0.5281515270     6.7278192660     8.3614519910     0.0001050800     0.0003822500     0.0001721100
  8      2.3291132100     4.6683516640     1.6237414530     0.0001998200    -0.0001939300     0.0001072300
  8      1.1571928470     4.6683516640     8.4225927630    -0.0001998200    -0.0001939300    -0.0001072300
  8     -0.7761742750     2.5538359780     8.4514912860    -0.0001479400     0.0000207500     0.0001328000
  8      4.2624805980     2.5538359780     1.5948427790     0.0001479400     0.0000207500    -0.0001328000
  8     -0.0227462110     4.6357112440     3.9595805200    -0.0000242400     0.0002180700    -0.0002714300
  8      3.5090525340     4.6357112440     6.0867535450     0.0000242400     0.0002180700     0.0002714300
  8      2.6310789140     9.1903723760     3.9940111140     0.0000183000    -0.0000681100    -0.0004023400
  8      0.8552273830     9.1903723760     6.0523226490    -0.0000183000    -0.0000681100     0.0004023400
  1     -0.0150123320     4.5439404770     2.9989045420     0.0000078400    -0.0001499700    -0.0001883700
  1      3.5013187340     4.5439404770     7.0474295230    -0.0000078400    -0.0001499700     0.0001883700
  1      2.6023756540     0.1433253060     3.0396221530    -0.0000421500     0.0001653400    -0.0002301300
  1      0.8839305890     0.1433253060     7.0067119120     0.0000421500     0.0001653400     0.0002301300
 CONVCOORD
          44           1
 19      0.0000000000     4.5435585560     0.0000000000
 19      2.6494950310     0.0217057240     0.0000000000
 12     -0.9063419100     0.0404538420     5.0231670320
 12     -0.9063419100     3.0650229140     5.0231670320
 12     -0.9063419100     6.1179668310     5.0231670320
 12      1.7431531220     4.5331493270     5.0231670320
 12      1.7431531220     7.6760598790     5.0231670320
 12      1.7431531220     1.5848215450     5.0231670320
 14      0.0424194530     1.5179562140     2.2314027000
 14      3.4438866620     1.5179562140     7.8149316660
 14      3.5586929300     7.6719251720     7.7501419270
 14     -0.0723866870     7.6719251720     2.2961921370
 14      2.5734640490     6.1278428060     2.2754756520
 14      0.9128422220     6.1278428060     7.7708582620
 13      0.7914206650     3.0430900370     7.7977913290
 13      2.6948855780     3.0430900370     2.2485427350
  8     -0.0212888210     1.5062190380     3.8630563090
  8      3.5075948530     1.5062190380     6.1832780470
  8      3.5305958760     7.6617464050     6.1322252270
  8     -0.0442896330     7.6617464050     3.9141088380
  8      2.6074128310     6.1525507670     3.9003806190
  8      0.8788934130     6.1525507670     6.1459534460
  8      0.8186673270     3.0611124320     6.0679279020
  8      2.6676389160     3.0611124320     3.9784061620
  8      1.5275425220     1.8521940440     1.6566672550
  8      1.9587637760     1.8521940440     8.3896665080
  8      4.9653989380     9.1705845220     1.6805638170
  8     -1.4790926680     9.1705845220     8.3657700970
  8      2.1166822820     7.1290919510     8.3519711070
  8      1.3696239620     7.1290919510     1.6943629580
  8      4.0144577700     6.7278192660     1.6848820740
  8     -0.5281515270     6.7278192660     8.3614519910
  8      2.3291132100     4.6683516640     1.6237414530
  8      1.1571928470     4.6683516640     8.4225927630
  8     -0.7761742750     2.5538359780     8.4514912860
  8      4.2624805980     2.5538359780     1.5948427790
  8     -0.0227462110     4.6357112440     3.9595805200
  8      3.5090525340     4.6357112440     6.0867535450
  8      2.6310789140     9.1903723760     3.9940111140
  8      0.8552273830     9.1903723760     6.0523226490
  1     -0.0150123320     4.5439404770     2.9989045420
  1      3.5013187340     4.5439404770     7.0474295230
  1      2.6023756540     0.1433253060     3.0396221530
  1      0.8839305890     0.1433253060     7.0067119120
 RECIP-PRIMVEC
    0.1887152057   -0.0000000000    0.0340503310

    0.0000000000    0.1087503909   -0.0000000000

    0.0000000000    0.0000000000    0.0995387963

 RECIP-CONVVEC
    0.1887152057   -0.0000000000    0.0340503310

    0.0000000000    0.1087503909   -0.0000000000

    0.0000000000    0.0000000000    0.0995387963

 WIGNER-SEITZ-PRIMCELL
           4
 -0.2649495E+01  0.4597685E+01 -0.4708646E+01  -0.3278435E+00 -0.1009766E-15 -0.9447320E+00
 -0.8368112E+00  0.4597685E+01 -0.5337688E+01  -0.3278435E+00 -0.1009766E-15 -0.9447320E+00
 -0.8368112E+00 -0.4597685E+01 -0.5337688E+01  -0.3278435E+00 -0.1009766E-15 -0.9447320E+00
 -0.2649495E+01 -0.4597685E+01 -0.4708646E+01  -0.3278435E+00 -0.1009766E-15 -0.9447320E+00
           4
 -0.2649495E+01  0.4597685E+01 -0.4708646E+01  -0.1000000E+01  0.4829488E-16  0.4554862E-32
 -0.2649495E+01 -0.4597685E+01 -0.4708646E+01  -0.1000000E+01  0.4829488E-16  0.4554862E-32
 -0.2649495E+01 -0.4597685E+01  0.4708646E+01  -0.1000000E+01  0.4829488E-16  0.4554862E-32
 -0.2649495E+01  0.4597685E+01  0.4708646E+01  -0.1000000E+01  0.4829488E-16  0.4554862E-32
           6
  0.2649495E+01 -0.4597685E+01  0.4708646E+01  -0.0000000E+00 -0.1000000E+01  0.1065828E-14
  0.8368112E+00 -0.4597685E+01  0.5337688E+01  -0.0000000E+00 -0.1000000E+01  0.1065828E-14
 -0.2649495E+01 -0.4597685E+01  0.4708646E+01  -0.0000000E+00 -0.1000000E+01  0.1065828E-14
 -0.2649495E+01 -0.4597685E+01 -0.4708646E+01  -0.0000000E+00 -0.1000000E+01  0.1065828E-14
 -0.8368112E+00 -0.4597685E+01 -0.5337688E+01  -0.0000000E+00 -0.1000000E+01  0.1065828E-14
  0.2649495E+01 -0.4597685E+01 -0.4708646E+01  -0.0000000E+00 -0.1000000E+01  0.1065828E-14
           4
  0.2649495E+01 -0.4597685E+01 -0.4708646E+01   0.1775651E+00 -0.2181216E-15 -0.9841091E+00
 -0.8368112E+00 -0.4597685E+01 -0.5337688E+01   0.1775651E+00 -0.2181216E-15 -0.9841091E+00
 -0.8368112E+00  0.4597685E+01 -0.5337688E+01   0.1775651E+00 -0.2181216E-15 -0.9841091E+00
  0.2649495E+01  0.4597685E+01 -0.4708646E+01   0.1775651E+00 -0.2181216E-15 -0.9841091E+00
           4
 -0.2649495E+01  0.4597685E+01  0.4708646E+01  -0.1775651E+00 -0.0000000E+00  0.9841091E+00
 -0.2649495E+01 -0.4597685E+01  0.4708646E+01  -0.1775651E+00 -0.0000000E+00  0.9841091E+00
  0.8368112E+00 -0.4597685E+01  0.5337688E+01  -0.1775651E+00 -0.0000000E+00  0.9841091E+00
  0.8368112E+00  0.4597685E+01  0.5337688E+01  -0.1775651E+00 -0.0000000E+00  0.9841091E+00
           6
  0.2649495E+01  0.4597685E+01 -0.4708646E+01   0.0000000E+00  0.1000000E+01  0.1065828E-14
 -0.8368112E+00  0.4597685E+01 -0.5337688E+01   0.0000000E+00  0.1000000E+01  0.1065828E-14
 -0.2649495E+01  0.4597685E+01 -0.4708646E+01   0.0000000E+00  0.1000000E+01  0.1065828E-14
 -0.2649495E+01  0.4597685E+01  0.4708646E+01   0.0000000E+00  0.1000000E+01  0.1065828E-14
  0.8368112E+00  0.4597685E+01  0.5337688E+01   0.0000000E+00  0.1000000E+01  0.1065828E-14
  0.2649495E+01  0.4597685E+01  0.4708646E+01   0.0000000E+00  0.1000000E+01  0.1065828E-14
           4
  0.2649495E+01  0.4597685E+01  0.4708646E+01   0.1000000E+01 -0.4829488E-16  0.0000000E+00
  0.2649495E+01 -0.4597685E+01  0.4708646E+01   0.1000000E+01 -0.4829488E-16  0.0000000E+00
  0.2649495E+01 -0.4597685E+01 -0.4708646E+01   0.1000000E+01 -0.4829488E-16  0.0000000E+00
  0.2649495E+01  0.4597685E+01 -0.4708646E+01   0.1000000E+01 -0.4829488E-16  0.0000000E+00
           4
  0.8368112E+00 -0.4597685E+01  0.5337688E+01   0.3278435E+00  0.3334111E-16  0.9447320E+00
  0.2649495E+01 -0.4597685E+01  0.4708646E+01   0.3278435E+00  0.3334111E-16  0.9447320E+00
  0.2649495E+01  0.4597685E+01  0.4708646E+01   0.3278435E+00  0.3334111E-16  0.9447320E+00
  0.8368112E+00  0.4597685E+01  0.5337688E+01   0.3278435E+00  0.3334111E-16  0.9447320E+00
 WIGNER-SEITZ-PRIMCELL_END
 WIGNER-SEITZ-CONVCELL
           4
 -0.2649495E+01  0.4597685E+01 -0.4708646E+01  -0.3278435E+00 -0.1009766E-15 -0.9447320E+00
 -0.8368112E+00  0.4597685E+01 -0.5337688E+01  -0.3278435E+00 -0.1009766E-15 -0.9447320E+00
 -0.8368112E+00 -0.4597685E+01 -0.5337688E+01  -0.3278435E+00 -0.1009766E-15 -0.9447320E+00
 -0.2649495E+01 -0.4597685E+01 -0.4708646E+01  -0.3278435E+00 -0.1009766E-15 -0.9447320E+00
           4
 -0.2649495E+01  0.4597685E+01 -0.4708646E+01  -0.1000000E+01  0.4829488E-16  0.4554862E-32
 -0.2649495E+01 -0.4597685E+01 -0.4708646E+01  -0.1000000E+01  0.4829488E-16  0.4554862E-32
 -0.2649495E+01 -0.4597685E+01  0.4708646E+01  -0.1000000E+01  0.4829488E-16  0.4554862E-32
 -0.2649495E+01  0.4597685E+01  0.4708646E+01  -0.1000000E+01  0.4829488E-16  0.4554862E-32
           6
  0.2649495E+01 -0.4597685E+01  0.4708646E+01  -0.0000000E+00 -0.1000000E+01  0.1065828E-14
  0.8368112E+00 -0.4597685E+01  0.5337688E+01  -0.0000000E+00 -0.1000000E+01  0.1065828E-14
 -0.2649495E+01 -0.4597685E+01  0.4708646E+01  -0.0000000E+00 -0.1000000E+01  0.1065828E-14
 -0.2649495E+01 -0.4597685E+01 -0.4708646E+01  -0.0000000E+00 -0.1000000E+01  0.1065828E-14
 -0.8368112E+00 -0.4597685E+01 -0.5337688E+01  -0.0000000E+00 -0.1000000E+01  0.1065828E-14
  0.2649495E+01 -0.4597685E+01 -0.4708646E+01  -0.0000000E+00 -0.1000000E+01  0.1065828E-14
           4
  0.2649495E+01 -0.4597685E+01 -0.4708646E+01   0.1775651E+00 -0.2181216E-15 -0.9841091E+00
 -0.8368112E+00 -0.4597685E+01 -0.5337688E+01   0.1775651E+00 -0.2181216E-15 -0.9841091E+00
 -0.8368112E+00  0.4597685E+01 -0.5337688E+01   0.1775651E+00 -0.2181216E-15 -0.9841091E+00
  0.2649495E+01  0.4597685E+01 -0.4708646E+01   0.1775651E+00 -0.2181216E-15 -0.9841091E+00
           4
 -0.2649495E+01  0.4597685E+01  0.4708646E+01  -0.1775651E+00 -0.0000000E+00  0.9841091E+00
 -0.2649495E+01 -0.4597685E+01  0.4708646E+01  -0.1775651E+00 -0.0000000E+00  0.9841091E+00
  0.8368112E+00 -0.4597685E+01  0.5337688E+01  -0.1775651E+00 -0.0000000E+00  0.9841091E+00
  0.8368112E+00  0.4597685E+01  0.5337688E+01  -0.1775651E+00 -0.0000000E+00  0.9841091E+00
           6
  0.2649495E+01  0.4597685E+01 -0.4708646E+01   0.0000000E+00  0.1000000E+01  0.1065828E-14
 -0.8368112E+00  0.4597685E+01 -0.5337688E+01   0.0000000E+00  0.1000000E+01  0.1065828E-14
 -0.2649495E+01  0.4597685E+01 -0.4708646E+01   0.0000000E+00  0.1000000E+01  0.1065828E-14
 -0.2649495E+01  0.4597685E+01  0.4708646E+01   0.0000000E+00  0.1000000E+01  0.1065828E-14
  0.8368112E+00  0.4597685E+01  0.5337688E+01   0.0000000E+00  0.1000000E+01  0.1065828E-14
  0.2649495E+01  0.4597685E+01  0.4708646E+01   0.0000000E+00  0.1000000E+01  0.1065828E-14
           4
  0.2649495E+01  0.4597685E+01  0.4708646E+01   0.1000000E+01 -0.4829488E-16  0.0000000E+00
  0.2649495E+01 -0.4597685E+01  0.4708646E+01   0.1000000E+01 -0.4829488E-16  0.0000000E+00
  0.2649495E+01 -0.4597685E+01 -0.4708646E+01   0.1000000E+01 -0.4829488E-16  0.0000000E+00
  0.2649495E+01  0.4597685E+01 -0.4708646E+01   0.1000000E+01 -0.4829488E-16  0.0000000E+00
           4
  0.8368112E+00 -0.4597685E+01  0.5337688E+01   0.3278435E+00  0.3334111E-16  0.9447320E+00
  0.2649495E+01 -0.4597685E+01  0.4708646E+01   0.3278435E+00  0.3334111E-16  0.9447320E+00
  0.2649495E+01  0.4597685E+01  0.4708646E+01   0.3278435E+00  0.3334111E-16  0.9447320E+00
  0.8368112E+00  0.4597685E+01  0.5337688E+01   0.3278435E+00  0.3334111E-16  0.9447320E+00
 WIGNER-SEITZ-CONVCELL_END
 BRILLOUIN-ZONE-PRIMCELL
           4
  0.1002657E+00  0.5437520E-01 -0.1571907E-01   0.9447320E+00  0.5532186E-16 -0.3278435E+00
  0.1002657E+00 -0.5437520E-01 -0.1571907E-01   0.9447320E+00  0.5532186E-16 -0.3278435E+00
  0.8844948E-01 -0.5437520E-01 -0.4976940E-01   0.9447320E+00  0.5532186E-16 -0.3278435E+00
  0.8844948E-01  0.5437520E-01 -0.4976940E-01   0.9447320E+00  0.5532186E-16 -0.3278435E+00
           4
 -0.8844948E-01  0.5437520E-01 -0.4976940E-01   0.0000000E+00 -0.5426985E-16 -0.1000000E+01
  0.8844948E-01  0.5437520E-01 -0.4976940E-01   0.0000000E+00 -0.5426985E-16 -0.1000000E+01
  0.8844948E-01 -0.5437520E-01 -0.4976940E-01   0.0000000E+00 -0.5426985E-16 -0.1000000E+01
 -0.8844948E-01 -0.5437520E-01 -0.4976940E-01   0.0000000E+00 -0.5426985E-16 -0.1000000E+01
           6
  0.8844948E-01 -0.5437520E-01  0.4976940E-01   0.0000000E+00 -0.1000000E+01  0.2879941E-15
 -0.8844948E-01 -0.5437520E-01  0.4976940E-01   0.0000000E+00 -0.1000000E+01  0.2879941E-15
 -0.1002657E+00 -0.5437520E-01  0.1571907E-01   0.0000000E+00 -0.1000000E+01  0.2879941E-15
 -0.8844948E-01 -0.5437520E-01 -0.4976940E-01   0.0000000E+00 -0.1000000E+01  0.2879941E-15
  0.8844948E-01 -0.5437520E-01 -0.4976940E-01   0.0000000E+00 -0.1000000E+01  0.2879941E-15
  0.1002657E+00 -0.5437520E-01 -0.1571907E-01   0.0000000E+00 -0.1000000E+01  0.2879941E-15
           4
  0.8844948E-01  0.5437520E-01  0.4976940E-01   0.9841091E+00 -0.3370857E-15  0.1775651E+00
  0.8844948E-01 -0.5437520E-01  0.4976940E-01   0.9841091E+00 -0.3370857E-15  0.1775651E+00
  0.1002657E+00 -0.5437520E-01 -0.1571907E-01   0.9841091E+00 -0.3370857E-15  0.1775651E+00
  0.1002657E+00  0.5437520E-01 -0.1571907E-01   0.9841091E+00 -0.3370857E-15  0.1775651E+00
           4
 -0.8844948E-01  0.5437520E-01 -0.4976940E-01  -0.9841091E+00 -0.1498159E-15 -0.1775651E+00
 -0.8844948E-01 -0.5437520E-01 -0.4976940E-01  -0.9841091E+00 -0.1498159E-15 -0.1775651E+00
 -0.1002657E+00 -0.5437520E-01  0.1571907E-01  -0.9841091E+00 -0.1498159E-15 -0.1775651E+00
 -0.1002657E+00  0.5437520E-01  0.1571907E-01  -0.9841091E+00 -0.1498159E-15 -0.1775651E+00
           6
  0.1002657E+00  0.5437520E-01 -0.1571907E-01  -0.0000000E+00  0.1000000E+01  0.2879941E-15
  0.8844948E-01  0.5437520E-01 -0.4976940E-01  -0.0000000E+00  0.1000000E+01  0.2879941E-15
 -0.8844948E-01  0.5437520E-01 -0.4976940E-01  -0.0000000E+00  0.1000000E+01  0.2879941E-15
 -0.1002657E+00  0.5437520E-01  0.1571907E-01  -0.0000000E+00  0.1000000E+01  0.2879941E-15
 -0.8844948E-01  0.5437520E-01  0.4976940E-01  -0.0000000E+00  0.1000000E+01  0.2879941E-15
  0.8844948E-01  0.5437520E-01  0.4976940E-01  -0.0000000E+00  0.1000000E+01  0.2879941E-15
           4
  0.8844948E-01 -0.5437520E-01  0.4976940E-01  -0.0000000E+00 -0.0000000E+00  0.1000000E+01
  0.8844948E-01  0.5437520E-01  0.4976940E-01  -0.0000000E+00 -0.0000000E+00  0.1000000E+01
 -0.8844948E-01  0.5437520E-01  0.4976940E-01  -0.0000000E+00 -0.0000000E+00  0.1000000E+01
 -0.8844948E-01 -0.5437520E-01  0.4976940E-01  -0.0000000E+00 -0.0000000E+00  0.1000000E+01
           4
 -0.1002657E+00  0.5437520E-01  0.1571907E-01  -0.9447320E+00 -0.1383046E-15  0.3278435E+00
 -0.1002657E+00 -0.5437520E-01  0.1571907E-01  -0.9447320E+00 -0.1383046E-15  0.3278435E+00
 -0.8844948E-01 -0.5437520E-01  0.4976940E-01  -0.9447320E+00 -0.1383046E-15  0.3278435E+00
 -0.8844948E-01  0.5437520E-01  0.4976940E-01  -0.9447320E+00 -0.1383046E-15  0.3278435E+00
 BRILLOUIN-ZONE-PRIMCELL_END
 BRILLOUIN-ZONE-CONVCELL
           4
  0.1002657E+00  0.5437520E-01 -0.1571907E-01   0.9447320E+00  0.5532186E-16 -0.3278435E+00
  0.1002657E+00 -0.5437520E-01 -0.1571907E-01   0.9447320E+00  0.5532186E-16 -0.3278435E+00
  0.8844948E-01 -0.5437520E-01 -0.4976940E-01   0.9447320E+00  0.5532186E-16 -0.3278435E+00
  0.8844948E-01  0.5437520E-01 -0.4976940E-01   0.9447320E+00  0.5532186E-16 -0.3278435E+00
           4
 -0.8844948E-01  0.5437520E-01 -0.4976940E-01   0.0000000E+00 -0.5426985E-16 -0.1000000E+01
  0.8844948E-01  0.5437520E-01 -0.4976940E-01   0.0000000E+00 -0.5426985E-16 -0.1000000E+01
  0.8844948E-01 -0.5437520E-01 -0.4976940E-01   0.0000000E+00 -0.5426985E-16 -0.1000000E+01
 -0.8844948E-01 -0.5437520E-01 -0.4976940E-01   0.0000000E+00 -0.5426985E-16 -0.1000000E+01
           6
  0.8844948E-01 -0.5437520E-01  0.4976940E-01   0.0000000E+00 -0.1000000E+01  0.2879941E-15
 -0.8844948E-01 -0.5437520E-01  0.4976940E-01   0.0000000E+00 -0.1000000E+01  0.2879941E-15
 -0.1002657E+00 -0.5437520E-01  0.1571907E-01   0.0000000E+00 -0.1000000E+01  0.2879941E-15
 -0.8844948E-01 -0.5437520E-01 -0.4976940E-01   0.0000000E+00 -0.1000000E+01  0.2879941E-15
  0.8844948E-01 -0.5437520E-01 -0.4976940E-01   0.0000000E+00 -0.1000000E+01  0.2879941E-15
  0.1002657E+00 -0.5437520E-01 -0.1571907E-01   0.0000000E+00 -0.1000000E+01  0.2879941E-15
           4
  0.8844948E-01  0.5437520E-01  0.4976940E-01   0.9841091E+00 -0.3370857E-15  0.1775651E+00
  0.8844948E-01 -0.5437520E-01  0.4976940E-01   0.9841091E+00 -0.3370857E-15  0.1775651E+00
  0.1002657E+00 -0.5437520E-01 -0.1571907E-01   0.9841091E+00 -0.3370857E-15  0.1775651E+00
  0.1002657E+00  0.5437520E-01 -0.1571907E-01   0.9841091E+00 -0.3370857E-15  0.1775651E+00
           4
 -0.8844948E-01  0.5437520E-01 -0.4976940E-01  -0.9841091E+00 -0.1498159E-15 -0.1775651E+00
 -0.8844948E-01 -0.5437520E-01 -0.4976940E-01  -0.9841091E+00 -0.1498159E-15 -0.1775651E+00
 -0.1002657E+00 -0.5437520E-01  0.1571907E-01  -0.9841091E+00 -0.1498159E-15 -0.1775651E+00
 -0.1002657E+00  0.5437520E-01  0.1571907E-01  -0.9841091E+00 -0.1498159E-15 -0.1775651E+00
           6
  0.1002657E+00  0.5437520E-01 -0.1571907E-01  -0.0000000E+00  0.1000000E+01  0.2879941E-15
  0.8844948E-01  0.5437520E-01 -0.4976940E-01  -0.0000000E+00  0.1000000E+01  0.2879941E-15
 -0.8844948E-01  0.5437520E-01 -0.4976940E-01  -0.0000000E+00  0.1000000E+01  0.2879941E-15
 -0.1002657E+00  0.5437520E-01  0.1571907E-01  -0.0000000E+00  0.1000000E+01  0.2879941E-15
 -0.8844948E-01  0.5437520E-01  0.4976940E-01  -0.0000000E+00  0.1000000E+01  0.2879941E-15
  0.8844948E-01  0.5437520E-01  0.4976940E-01  -0.0000000E+00  0.1000000E+01  0.2879941E-15
           4
  0.8844948E-01 -0.5437520E-01  0.4976940E-01  -0.0000000E+00 -0.0000000E+00  0.1000000E+01
  0.8844948E-01  0.5437520E-01  0.4976940E-01  -0.0000000E+00 -0.0000000E+00  0.1000000E+01
 -0.8844948E-01  0.5437520E-01  0.4976940E-01  -0.0000000E+00 -0.0000000E+00  0.1000000E+01
 -0.8844948E-01 -0.5437520E-01  0.4976940E-01  -0.0000000E+00 -0.0000000E+00  0.1000000E+01
           4
 -0.1002657E+00  0.5437520E-01  0.1571907E-01  -0.9447320E+00 -0.1383046E-15  0.3278435E+00
 -0.1002657E+00 -0.5437520E-01  0.1571907E-01  -0.9447320E+00 -0.1383046E-15  0.3278435E+00
 -0.8844948E-01 -0.5437520E-01  0.4976940E-01  -0.9447320E+00 -0.1383046E-15  0.3278435E+00
 -0.8844948E-01  0.5437520E-01  0.4976940E-01  -0.9447320E+00 -0.1383046E-15  0.3278435E+00
 BRILLOUIN-ZONE-CONVCELL_END
 ATOMS
   19    0.0000000000    4.5435585560    0.0000000000    0.0000000000    0.0003829300    0.0000000000
   19    2.6494950310    0.0217057240    0.0000000000    0.0000000000   -0.0002006700    0.0000000000
   12   -0.9063419100    0.0404538420    5.0231670320    0.0000000000    0.0004310600    0.0000000000
   12   -0.9063419100    3.0650229140    5.0231670320    0.0000000000   -0.0002875600    0.0000000000
   12   -0.9063419100    6.1179668310    5.0231670320    0.0000000000   -0.0003461800    0.0000000000
   12    1.7431531220    4.5331493270    5.0231670320    0.0000000000    0.0001824000    0.0000000000
   12    1.7431531220    7.6760598790    5.0231670320    0.0000000000   -0.0001598400    0.0000000000
   12    1.7431531220    1.5848215450    5.0231670320    0.0000000000    0.0002061900    0.0000000000
   14    0.0424194530    1.5179562140    2.2314027000   -0.0000359100   -0.0000549600    0.0001861200
   14    3.4438866620    1.5179562140    7.8149316660    0.0000359100   -0.0000549600   -0.0001861200
   14    3.5586929300    7.6719251720    7.7501419270   -0.0000089700    0.0001085300   -0.0000929500
   14   -0.0723866870    7.6719251720    2.2961921370    0.0000089700    0.0001085300    0.0000929500
   14    2.5734640490    6.1278428060    2.2754756520    0.0000521600   -0.0000181700   -0.0000525100
   14    0.9128422220    6.1278428060    7.7708582620   -0.0000521600   -0.0000181700    0.0000525100
   13    0.7914206650    3.0430900370    7.7977913290   -0.0001327100   -0.0001746800    0.0000822900
   13    2.6948855780    3.0430900370    2.2485427350    0.0001327100   -0.0001746800   -0.0000822900
    8   -0.0212888210    1.5062190380    3.8630563090    0.0000383000   -0.0001488100    0.0002112000
    8    3.5075948530    1.5062190380    6.1832780470   -0.0000383000   -0.0001488100   -0.0002112000
    8    3.5305958760    7.6617464050    6.1322252270   -0.0002269300   -0.0001290300   -0.0002765600
    8   -0.0442896330    7.6617464050    3.9141088380    0.0002269300   -0.0001290300    0.0002765600
    8    2.6074128310    6.1525507670    3.9003806190   -0.0000569200   -0.0000309300    0.0000490700
    8    0.8788934130    6.1525507670    6.1459534460    0.0000569200   -0.0000309300   -0.0000490700
    8    0.8186673270    3.0611124320    6.0679279020    0.0002358400    0.0000365800    0.0000251100
    8    2.6676389160    3.0611124320    3.9784061620   -0.0002358400    0.0000365800   -0.0000251100
    8    1.5275425220    1.8521940440    1.6566672550   -0.0001038800    0.0001312900    0.0000883100
    8    1.9587637760    1.8521940440    8.3896665080    0.0001038800    0.0001312900   -0.0000883100
    8    4.9653989380    9.1705845220    1.6805638170    0.0001392200    0.0001127400   -0.0003409600
    8   -1.4790926680    9.1705845220    8.3657700970   -0.0001392200    0.0001127400    0.0003409600
    8    2.1166822820    7.1290919510    8.3519711070    0.0002389700   -0.0003111300    0.0000683800
    8    1.3696239620    7.1290919510    1.6943629580   -0.0002389700   -0.0003111300   -0.0000683800
    8    4.0144577700    6.7278192660    1.6848820740   -0.0001050800    0.0003822500   -0.0001721100
    8   -0.5281515270    6.7278192660    8.3614519910    0.0001050800    0.0003822500    0.0001721100
    8    2.3291132100    4.6683516640    1.6237414530    0.0001998200   -0.0001939300    0.0001072300
    8    1.1571928470    4.6683516640    8.4225927630   -0.0001998200   -0.0001939300   -0.0001072300
    8   -0.7761742750    2.5538359780    8.4514912860   -0.0001479400    0.0000207500    0.0001328000
    8    4.2624805980    2.5538359780    1.5948427790    0.0001479400    0.0000207500   -0.0001328000
    8   -0.0227462110    4.6357112440    3.9595805200   -0.0000242400    0.0002180700   -0.0002714300
    8    3.5090525340    4.6357112440    6.0867535450    0.0000242400    0.0002180700    0.0002714300
    8    2.6310789140    9.1903723760    3.9940111140    0.0000183000   -0.0000681100   -0.0004023400
    8    0.8552273830    9.1903723760    6.0523226490   -0.0000183000   -0.0000681100    0.0004023400
    1   -0.0150123320    4.5439404770    2.9989045420    0.0000078400   -0.0001499700   -0.0001883700
    1    3.5013187340    4.5439404770    7.0474295230   -0.0000078400   -0.0001499700    0.0001883700
    1    2.6023756540    0.1433253060    3.0396221530   -0.0000421500    0.0001653400   -0.0002301300
    1    0.8839305890    0.1433253060    7.0067119120    0.0000421500    0.0001653400    0.0002301300
   19   -1.8126838200    4.5435585560   10.0463340640    0.0000000000    0.0003829300    0.0000000000
   19    0.8368112110    0.0217057240   10.0463340640    0.0000000000   -0.0002006700    0.0000000000
   19    5.2989900630    4.5435585560    0.0000000000    0.0000000000    0.0003829300    0.0000000000
   12    4.3926481530    0.0404538420    5.0231670320    0.0000000000    0.0004310600    0.0000000000
   12    4.3926481530    3.0650229140    5.0231670320    0.0000000000   -0.0002875600    0.0000000000
   12    4.3926481530    6.1179668310    5.0231670320    0.0000000000   -0.0003461800    0.0000000000
   19    3.4863062430    4.5435585560   10.0463340640    0.0000000000    0.0003829300    0.0000000000
 FRAMES
1      0.0000000000    0.0000000000    0.0000000000      5.2989900630    0.0000000000    0.0000000000
1      0.0000000000    0.0000000000    0.0000000000      0.0000000000    9.1953692500    0.0000000000
1      0.0000000000    0.0000000000    0.0000000000     -1.8126838200    0.0000000000   10.0463340640
1     -1.8126838200    0.0000000000   10.0463340640      3.4863062430    0.0000000000   10.0463340640
1     -1.8126838200    0.0000000000   10.0463340640     -1.8126838200    9.1953692500   10.0463340640
1      0.0000000000    9.1953692500    0.0000000000      5.2989900630    9.1953692500    0.0000000000
1      0.0000000000    9.1953692500    0.0000000000     -1.8126838200    9.1953692500   10.0463340640
1     -1.8126838200    9.1953692500   10.0463340640      3.4863062430    9.1953692500   10.0463340640
1      5.2989900630    0.0000000000    0.0000000000      5.2989900630    9.1953692500    0.0000000000
1      5.2989900630    0.0000000000    0.0000000000      3.4863062430    0.0000000000   10.0463340640
1      3.4863062430    0.0000000000   10.0463340640      3.4863062430    9.1953692500   10.0463340640
1      5.2989900630    9.1953692500    0.0000000000      3.4863062430    9.1953692500   10.0463340640
