 INFO
nunit      1    1    1
unit   cell
celltype   primcell
shape   parapipedal
 END_INFO
 DIM-GROUP
           3           1
 PRIMVEC
    5.2989900630    0.0000000000    0.0000000000
    0.0000000000    9.1953692500    0.0000000000
   -1.8126838200    0.0000000000   10.0463340640
 CONVVEC
    5.2989900630    0.0000000000    0.0000000000
    0.0000000000    9.1953692500    0.0000000000
   -1.8126838200    0.0000000000   10.0463340640
 PRIMCOORD
          44           1
 19      0.0000000000     4.5589585460     0.0000000000     0.0000000000    -0.0000174900     0.0000000000
 19      2.6494950310     0.0103473270     0.0000000000     0.0000000000     0.0000280300     0.0000000000
 12     -0.9063419100     0.0418983850     5.0231670320     0.0000000000    -0.0000396600     0.0000000000
 12     -0.9063419100     3.0642289860     5.0231670320     0.0000000000     0.0000803100     0.0000000000
 12     -0.9063419100     6.1163125410     5.0231670320     0.0000000000     0.0000657500     0.0000000000
 12      1.7431531220     4.5331398530     5.0231670320     0.0000000000    -0.0000143000     0.0000000000
 12      1.7431531220     7.6766942130     5.0231670320     0.0000000000     0.0000542900     0.0000000000
 12      1.7431531220     1.5852188010     5.0231670320     0.0000000000    -0.0000285500     0.0000000000
 14      0.0477362340     1.5181099140     2.2313684610     0.0000336200     0.0000207700     0.0000027200
 14      3.4385698800     1.5181099140     7.8149659050    -0.0000336200     0.0000207700    -0.0000027200
 14      3.5620476650     7.6728989890     7.7489897620    -0.0000208000     0.0000218500     0.0000104000
 14     -0.0757414220     7.6728989890     2.2973443030     0.0000208000     0.0000218500    -0.0000104000
 14      2.5705226970     6.1266768780     2.2761878920     0.0000129300    -0.0000169600    -0.0000032500
 14      0.9157835740     6.1266768780     7.7701460220    -0.0000129300    -0.0000169600     0.0000032500
 13      0.7853736640     3.0418825080     7.7983115600    -0.0000040300    -0.0000160000     0.0000267600
 13      2.7009325800     3.0418825080     2.2480225050     0.0000040300    -0.0000160000    -0.0000267600
  8     -0.0195347790     1.5058361400     3.8632287680    -0.0000592000    -0.0000130600    -0.0000332300
  8      3.5058408110     1.5058361400     6.1831055880     0.0000592000    -0.0000130600     0.0000332300
  8      3.5309975610     7.6624110970     6.1310550200    -0.0000261800    -0.0000157800     0.0000102400
  8     -0.0446913170     7.6624110970     3.9152790450     0.0000261800    -0.0000157800    -0.0000102400
  8      2.6062134160     6.1515197680     3.9010757130     0.0000535900     0.0000023300    -0.0000051000
  8      0.8800928280     6.1515197680     6.1452583520    -0.0000535900     0.0000023300     0.0000051000
  8      0.8181207580     3.0608756450     6.0681034780    -0.0000266300     0.0000426800     0.0000659400
  8      2.6681854860     3.0608756450     3.9782305870     0.0000266300     0.0000426800    -0.0000659400
  8      1.5346862790     1.8486313530     1.6587365240     0.0000566500    -0.0000230600     0.0000304600
  8      1.9516200180     1.8486313530     8.3875972390    -0.0000566500    -0.0000230600    -0.0000304600
  8      4.9705248270     9.1718846240     1.6789431170    -0.0000040200     0.0000249300     0.0000474100
  8     -1.4842185570     9.1718846240     8.3673907970     0.0000040200     0.0000249300    -0.0000474100
  8      2.1255046720     7.1192048340     8.3526716400    -0.0000535600     0.0000047800     0.0000588100
  8      1.3608015710     7.1192048340     1.6936624250     0.0000535600     0.0000047800    -0.0000588100
  8      4.0059973660     6.7371932160     1.6844474480    -0.0000352500     0.0000341000    -0.0000353300
  8     -0.5196911230     6.7371932160     8.3618866170     0.0000352500     0.0000341000     0.0000353300
  8      2.3353356700     4.6664267970     1.6230959040     0.0000125500    -0.0000403100     0.0000677700
  8      1.1509703870     4.6664267970     8.4232383110    -0.0000125500    -0.0000403100    -0.0000677700
  8     -0.7842921090     2.5571216650     8.4513619690    -0.0000063100     0.0000605900    -0.0000880300
  8      4.2705984320     2.5571216650     1.5949720950     0.0000063100     0.0000605900     0.0000880300
  8     -0.0228755910     4.6357596800     3.9574789280    -0.0000320200    -0.0000331900    -0.0000137400
  8      3.5091819140     4.6357596800     6.0888551360     0.0000320200    -0.0000331900     0.0000137400
  8      2.6311266850     9.1906654310     3.9913844520     0.0000277500    -0.0000670500    -0.0000487700
  8      0.8551796120     9.1906654310     6.0549493110    -0.0000277500    -0.0000670500     0.0000487700
  1     -0.0157805420     4.5352086500     2.9975281670    -0.0000377600     0.0000045100     0.0000504000
  1      3.5020869440     4.5352086500     7.0488058980     0.0000377600     0.0000045100    -0.0000504000
  1      2.5976599690     0.1533324960     3.0384738520     0.0000296900    -0.0000553200     0.0000016500
  1      0.8886462740     0.1533324960     7.0078602130    -0.0000296900    -0.0000553200    -0.0000016500
 CONVCOORD
          44           1
 19      0.0000000000     4.5589585460     0.0000000000
 19      2.6494950310     0.0103473270     0.0000000000
 12     -0.9063419100     0.0418983850     5.0231670320
 12     -0.9063419100     3.0642289860     5.0231670320
 12     -0.9063419100     6.1163125410     5.0231670320
 12      1.7431531220     4.5331398530     5.0231670320
 12      1.7431531220     7.6766942130     5.0231670320
 12      1.7431531220     1.5852188010     5.0231670320
 14      0.0477362340     1.5181099140     2.2313684610
 14      3.4385698800     1.5181099140     7.8149659050
 14      3.5620476650     7.6728989890     7.7489897620
 14     -0.0757414220     7.6728989890     2.2973443030
 14      2.5705226970     6.1266768780     2.2761878920
 14      0.9157835740     6.1266768780     7.7701460220
 13      0.7853736640     3.0418825080     7.7983115600
 13      2.7009325800     3.0418825080     2.2480225050
  8     -0.0195347790     1.5058361400     3.8632287680
  8      3.5058408110     1.5058361400     6.1831055880
  8      3.5309975610     7.6624110970     6.1310550200
  8     -0.0446913170     7.6624110970     3.9152790450
  8      2.6062134160     6.1515197680     3.9010757130
  8      0.8800928280     6.1515197680     6.1452583520
  8      0.8181207580     3.0608756450     6.0681034780
  8      2.6681854860     3.0608756450     3.9782305870
  8      1.5346862790     1.8486313530     1.6587365240
  8      1.9516200180     1.8486313530     8.3875972390
  8      4.9705248270     9.1718846240     1.6789431170
  8     -1.4842185570     9.1718846240     8.3673907970
  8      2.1255046720     7.1192048340     8.3526716400
  8      1.3608015710     7.1192048340     1.6936624250
  8      4.0059973660     6.7371932160     1.6844474480
  8     -0.5196911230     6.7371932160     8.3618866170
  8      2.3353356700     4.6664267970     1.6230959040
  8      1.1509703870     4.6664267970     8.4232383110
  8     -0.7842921090     2.5571216650     8.4513619690
  8      4.2705984320     2.5571216650     1.5949720950
  8     -0.0228755910     4.6357596800     3.9574789280
  8      3.5091819140     4.6357596800     6.0888551360
  8      2.6311266850     9.1906654310     3.9913844520
  8      0.8551796120     9.1906654310     6.0549493110
  1     -0.0157805420     4.5352086500     2.9975281670
  1      3.5020869440     4.5352086500     7.0488058980
  1      2.5976599690     0.1533324960     3.0384738520
  1      0.8886462740     0.1533324960     7.0078602130
 RECIP-PRIMVEC
    0.1887152057   -0.0000000000    0.0340503310

    0.0000000000    0.1087503909   -0.0000000000

    0.0000000000    0.0000000000    0.0995387963

 RECIP-CONVVEC
    0.1887152057   -0.0000000000    0.0340503310

    0.0000000000    0.1087503909   -0.0000000000

    0.0000000000    0.0000000000    0.0995387963

 WIGNER-SEITZ-PRIMCELL
           4
 -0.2649495E+01  0.4597685E+01 -0.4708646E+01  -0.3278435E+00 -0.1009766E-15 -0.9447320E+00
 -0.8368112E+00  0.4597685E+01 -0.5337688E+01  -0.3278435E+00 -0.1009766E-15 -0.9447320E+00
 -0.8368112E+00 -0.4597685E+01 -0.5337688E+01  -0.3278435E+00 -0.1009766E-15 -0.9447320E+00
 -0.2649495E+01 -0.4597685E+01 -0.4708646E+01  -0.3278435E+00 -0.1009766E-15 -0.9447320E+00
           4
 -0.2649495E+01  0.4597685E+01 -0.4708646E+01  -0.1000000E+01  0.4829488E-16  0.4554862E-32
 -0.2649495E+01 -0.4597685E+01 -0.4708646E+01  -0.1000000E+01  0.4829488E-16  0.4554862E-32
 -0.2649495E+01 -0.4597685E+01  0.4708646E+01  -0.1000000E+01  0.4829488E-16  0.4554862E-32
 -0.2649495E+01  0.4597685E+01  0.4708646E+01  -0.1000000E+01  0.4829488E-16  0.4554862E-32
           6
  0.2649495E+01 -0.4597685E+01  0.4708646E+01  -0.0000000E+00 -0.1000000E+01  0.1065828E-14
  0.8368112E+00 -0.4597685E+01  0.5337688E+01  -0.0000000E+00 -0.1000000E+01  0.1065828E-14
 -0.2649495E+01 -0.4597685E+01  0.4708646E+01  -0.0000000E+00 -0.1000000E+01  0.1065828E-14
 -0.2649495E+01 -0.4597685E+01 -0.4708646E+01  -0.0000000E+00 -0.1000000E+01  0.1065828E-14
 -0.8368112E+00 -0.4597685E+01 -0.5337688E+01  -0.0000000E+00 -0.1000000E+01  0.1065828E-14
  0.2649495E+01 -0.4597685E+01 -0.4708646E+01  -0.0000000E+00 -0.1000000E+01  0.1065828E-14
           4
  0.2649495E+01 -0.4597685E+01 -0.4708646E+01   0.1775651E+00 -0.2181216E-15 -0.9841091E+00
 -0.8368112E+00 -0.4597685E+01 -0.5337688E+01   0.1775651E+00 -0.2181216E-15 -0.9841091E+00
 -0.8368112E+00  0.4597685E+01 -0.5337688E+01   0.1775651E+00 -0.2181216E-15 -0.9841091E+00
  0.2649495E+01  0.4597685E+01 -0.4708646E+01   0.1775651E+00 -0.2181216E-15 -0.9841091E+00
           4
 -0.2649495E+01  0.4597685E+01  0.4708646E+01  -0.1775651E+00 -0.0000000E+00  0.9841091E+00
 -0.2649495E+01 -0.4597685E+01  0.4708646E+01  -0.1775651E+00 -0.0000000E+00  0.9841091E+00
  0.8368112E+00 -0.4597685E+01  0.5337688E+01  -0.1775651E+00 -0.0000000E+00  0.9841091E+00
  0.8368112E+00  0.4597685E+01  0.5337688E+01  -0.1775651E+00 -0.0000000E+00  0.9841091E+00
           6
  0.2649495E+01  0.4597685E+01 -0.4708646E+01   0.0000000E+00  0.1000000E+01  0.1065828E-14
 -0.8368112E+00  0.4597685E+01 -0.5337688E+01   0.0000000E+00  0.1000000E+01  0.1065828E-14
 -0.2649495E+01  0.4597685E+01 -0.4708646E+01   0.0000000E+00  0.1000000E+01  0.1065828E-14
 -0.2649495E+01  0.4597685E+01  0.4708646E+01   0.0000000E+00  0.1000000E+01  0.1065828E-14
  0.8368112E+00  0.4597685E+01  0.5337688E+01   0.0000000E+00  0.1000000E+01  0.1065828E-14
  0.2649495E+01  0.4597685E+01  0.4708646E+01   0.0000000E+00  0.1000000E+01  0.1065828E-14
           4
  0.2649495E+01  0.4597685E+01  0.4708646E+01   0.1000000E+01 -0.4829488E-16  0.0000000E+00
  0.2649495E+01 -0.4597685E+01  0.4708646E+01   0.1000000E+01 -0.4829488E-16  0.0000000E+00
  0.2649495E+01 -0.4597685E+01 -0.4708646E+01   0.1000000E+01 -0.4829488E-16  0.0000000E+00
  0.2649495E+01  0.4597685E+01 -0.4708646E+01   0.1000000E+01 -0.4829488E-16  0.0000000E+00
           4
  0.8368112E+00 -0.4597685E+01  0.5337688E+01   0.3278435E+00  0.3334111E-16  0.9447320E+00
  0.2649495E+01 -0.4597685E+01  0.4708646E+01   0.3278435E+00  0.3334111E-16  0.9447320E+00
  0.2649495E+01  0.4597685E+01  0.4708646E+01   0.3278435E+00  0.3334111E-16  0.9447320E+00
  0.8368112E+00  0.4597685E+01  0.5337688E+01   0.3278435E+00  0.3334111E-16  0.9447320E+00
 WIGNER-SEITZ-PRIMCELL_END
 WIGNER-SEITZ-CONVCELL
           4
 -0.2649495E+01  0.4597685E+01 -0.4708646E+01  -0.3278435E+00 -0.1009766E-15 -0.9447320E+00
 -0.8368112E+00  0.4597685E+01 -0.5337688E+01  -0.3278435E+00 -0.1009766E-15 -0.9447320E+00
 -0.8368112E+00 -0.4597685E+01 -0.5337688E+01  -0.3278435E+00 -0.1009766E-15 -0.9447320E+00
 -0.2649495E+01 -0.4597685E+01 -0.4708646E+01  -0.3278435E+00 -0.1009766E-15 -0.9447320E+00
           4
 -0.2649495E+01  0.4597685E+01 -0.4708646E+01  -0.1000000E+01  0.4829488E-16  0.4554862E-32
 -0.2649495E+01 -0.4597685E+01 -0.4708646E+01  -0.1000000E+01  0.4829488E-16  0.4554862E-32
 -0.2649495E+01 -0.4597685E+01  0.4708646E+01  -0.1000000E+01  0.4829488E-16  0.4554862E-32
 -0.2649495E+01  0.4597685E+01  0.4708646E+01  -0.1000000E+01  0.4829488E-16  0.4554862E-32
           6
  0.2649495E+01 -0.4597685E+01  0.4708646E+01  -0.0000000E+00 -0.1000000E+01  0.1065828E-14
  0.8368112E+00 -0.4597685E+01  0.5337688E+01  -0.0000000E+00 -0.1000000E+01  0.1065828E-14
 -0.2649495E+01 -0.4597685E+01  0.4708646E+01  -0.0000000E+00 -0.1000000E+01  0.1065828E-14
 -0.2649495E+01 -0.4597685E+01 -0.4708646E+01  -0.0000000E+00 -0.1000000E+01  0.1065828E-14
 -0.8368112E+00 -0.4597685E+01 -0.5337688E+01  -0.0000000E+00 -0.1000000E+01  0.1065828E-14
  0.2649495E+01 -0.4597685E+01 -0.4708646E+01  -0.0000000E+00 -0.1000000E+01  0.1065828E-14
           4
  0.2649495E+01 -0.4597685E+01 -0.4708646E+01   0.1775651E+00 -0.2181216E-15 -0.9841091E+00
 -0.8368112E+00 -0.4597685E+01 -0.5337688E+01   0.1775651E+00 -0.2181216E-15 -0.9841091E+00
 -0.8368112E+00  0.4597685E+01 -0.5337688E+01   0.1775651E+00 -0.2181216E-15 -0.9841091E+00
  0.2649495E+01  0.4597685E+01 -0.4708646E+01   0.1775651E+00 -0.2181216E-15 -0.9841091E+00
           4
 -0.2649495E+01  0.4597685E+01  0.4708646E+01  -0.1775651E+00 -0.0000000E+00  0.9841091E+00
 -0.2649495E+01 -0.4597685E+01  0.4708646E+01  -0.1775651E+00 -0.0000000E+00  0.9841091E+00
  0.8368112E+00 -0.4597685E+01  0.5337688E+01  -0.1775651E+00 -0.0000000E+00  0.9841091E+00
  0.8368112E+00  0.4597685E+01  0.5337688E+01  -0.1775651E+00 -0.0000000E+00  0.9841091E+00
           6
  0.2649495E+01  0.4597685E+01 -0.4708646E+01   0.0000000E+00  0.1000000E+01  0.1065828E-14
 -0.8368112E+00  0.4597685E+01 -0.5337688E+01   0.0000000E+00  0.1000000E+01  0.1065828E-14
 -0.2649495E+01  0.4597685E+01 -0.4708646E+01   0.0000000E+00  0.1000000E+01  0.1065828E-14
 -0.2649495E+01  0.4597685E+01  0.4708646E+01   0.0000000E+00  0.1000000E+01  0.1065828E-14
  0.8368112E+00  0.4597685E+01  0.5337688E+01   0.0000000E+00  0.1000000E+01  0.1065828E-14
  0.2649495E+01  0.4597685E+01  0.4708646E+01   0.0000000E+00  0.1000000E+01  0.1065828E-14
           4
  0.2649495E+01  0.4597685E+01  0.4708646E+01   0.1000000E+01 -0.4829488E-16  0.0000000E+00
  0.2649495E+01 -0.4597685E+01  0.4708646E+01   0.1000000E+01 -0.4829488E-16  0.0000000E+00
  0.2649495E+01 -0.4597685E+01 -0.4708646E+01   0.1000000E+01 -0.4829488E-16  0.0000000E+00
  0.2649495E+01  0.4597685E+01 -0.4708646E+01   0.1000000E+01 -0.4829488E-16  0.0000000E+00
           4
  0.8368112E+00 -0.4597685E+01  0.5337688E+01   0.3278435E+00  0.3334111E-16  0.9447320E+00
  0.2649495E+01 -0.4597685E+01  0.4708646E+01   0.3278435E+00  0.3334111E-16  0.9447320E+00
  0.2649495E+01  0.4597685E+01  0.4708646E+01   0.3278435E+00  0.3334111E-16  0.9447320E+00
  0.8368112E+00  0.4597685E+01  0.5337688E+01   0.3278435E+00  0.3334111E-16  0.9447320E+00
 WIGNER-SEITZ-CONVCELL_END
 BRILLOUIN-ZONE-PRIMCELL
           4
  0.1002657E+00  0.5437520E-01 -0.1571907E-01   0.9447320E+00  0.5532186E-16 -0.3278435E+00
  0.1002657E+00 -0.5437520E-01 -0.1571907E-01   0.9447320E+00  0.5532186E-16 -0.3278435E+00
  0.8844948E-01 -0.5437520E-01 -0.4976940E-01   0.9447320E+00  0.5532186E-16 -0.3278435E+00
  0.8844948E-01  0.5437520E-01 -0.4976940E-01   0.9447320E+00  0.5532186E-16 -0.3278435E+00
           4
 -0.8844948E-01  0.5437520E-01 -0.4976940E-01   0.0000000E+00 -0.5426985E-16 -0.1000000E+01
  0.8844948E-01  0.5437520E-01 -0.4976940E-01   0.0000000E+00 -0.5426985E-16 -0.1000000E+01
  0.8844948E-01 -0.5437520E-01 -0.4976940E-01   0.0000000E+00 -0.5426985E-16 -0.1000000E+01
 -0.8844948E-01 -0.5437520E-01 -0.4976940E-01   0.0000000E+00 -0.5426985E-16 -0.1000000E+01
           6
  0.8844948E-01 -0.5437520E-01  0.4976940E-01   0.0000000E+00 -0.1000000E+01  0.2879941E-15
 -0.8844948E-01 -0.5437520E-01  0.4976940E-01   0.0000000E+00 -0.1000000E+01  0.2879941E-15
 -0.1002657E+00 -0.5437520E-01  0.1571907E-01   0.0000000E+00 -0.1000000E+01  0.2879941E-15
 -0.8844948E-01 -0.5437520E-01 -0.4976940E-01   0.0000000E+00 -0.1000000E+01  0.2879941E-15
  0.8844948E-01 -0.5437520E-01 -0.4976940E-01   0.0000000E+00 -0.1000000E+01  0.2879941E-15
  0.1002657E+00 -0.5437520E-01 -0.1571907E-01   0.0000000E+00 -0.1000000E+01  0.2879941E-15
           4
  0.8844948E-01  0.5437520E-01  0.4976940E-01   0.9841091E+00 -0.3370857E-15  0.1775651E+00
  0.8844948E-01 -0.5437520E-01  0.4976940E-01   0.9841091E+00 -0.3370857E-15  0.1775651E+00
  0.1002657E+00 -0.5437520E-01 -0.1571907E-01   0.9841091E+00 -0.3370857E-15  0.1775651E+00
  0.1002657E+00  0.5437520E-01 -0.1571907E-01   0.9841091E+00 -0.3370857E-15  0.1775651E+00
           4
 -0.8844948E-01  0.5437520E-01 -0.4976940E-01  -0.9841091E+00 -0.1498159E-15 -0.1775651E+00
 -0.8844948E-01 -0.5437520E-01 -0.4976940E-01  -0.9841091E+00 -0.1498159E-15 -0.1775651E+00
 -0.1002657E+00 -0.5437520E-01  0.1571907E-01  -0.9841091E+00 -0.1498159E-15 -0.1775651E+00
 -0.1002657E+00  0.5437520E-01  0.1571907E-01  -0.9841091E+00 -0.1498159E-15 -0.1775651E+00
           6
  0.1002657E+00  0.5437520E-01 -0.1571907E-01  -0.0000000E+00  0.1000000E+01  0.2879941E-15
  0.8844948E-01  0.5437520E-01 -0.4976940E-01  -0.0000000E+00  0.1000000E+01  0.2879941E-15
 -0.8844948E-01  0.5437520E-01 -0.4976940E-01  -0.0000000E+00  0.1000000E+01  0.2879941E-15
 -0.1002657E+00  0.5437520E-01  0.1571907E-01  -0.0000000E+00  0.1000000E+01  0.2879941E-15
 -0.8844948E-01  0.5437520E-01  0.4976940E-01  -0.0000000E+00  0.1000000E+01  0.2879941E-15
  0.8844948E-01  0.5437520E-01  0.4976940E-01  -0.0000000E+00  0.1000000E+01  0.2879941E-15
           4
  0.8844948E-01 -0.5437520E-01  0.4976940E-01  -0.0000000E+00 -0.0000000E+00  0.1000000E+01
  0.8844948E-01  0.5437520E-01  0.4976940E-01  -0.0000000E+00 -0.0000000E+00  0.1000000E+01
 -0.8844948E-01  0.5437520E-01  0.4976940E-01  -0.0000000E+00 -0.0000000E+00  0.1000000E+01
 -0.8844948E-01 -0.5437520E-01  0.4976940E-01  -0.0000000E+00 -0.0000000E+00  0.1000000E+01
           4
 -0.1002657E+00  0.5437520E-01  0.1571907E-01  -0.9447320E+00 -0.1383046E-15  0.3278435E+00
 -0.1002657E+00 -0.5437520E-01  0.1571907E-01  -0.9447320E+00 -0.1383046E-15  0.3278435E+00
 -0.8844948E-01 -0.5437520E-01  0.4976940E-01  -0.9447320E+00 -0.1383046E-15  0.3278435E+00
 -0.8844948E-01  0.5437520E-01  0.4976940E-01  -0.9447320E+00 -0.1383046E-15  0.3278435E+00
 BRILLOUIN-ZONE-PRIMCELL_END
 BRILLOUIN-ZONE-CONVCELL
           4
  0.1002657E+00  0.5437520E-01 -0.1571907E-01   0.9447320E+00  0.5532186E-16 -0.3278435E+00
  0.1002657E+00 -0.5437520E-01 -0.1571907E-01   0.9447320E+00  0.5532186E-16 -0.3278435E+00
  0.8844948E-01 -0.5437520E-01 -0.4976940E-01   0.9447320E+00  0.5532186E-16 -0.3278435E+00
  0.8844948E-01  0.5437520E-01 -0.4976940E-01   0.9447320E+00  0.5532186E-16 -0.3278435E+00
           4
 -0.8844948E-01  0.5437520E-01 -0.4976940E-01   0.0000000E+00 -0.5426985E-16 -0.1000000E+01
  0.8844948E-01  0.5437520E-01 -0.4976940E-01   0.0000000E+00 -0.5426985E-16 -0.1000000E+01
  0.8844948E-01 -0.5437520E-01 -0.4976940E-01   0.0000000E+00 -0.5426985E-16 -0.1000000E+01
 -0.8844948E-01 -0.5437520E-01 -0.4976940E-01   0.0000000E+00 -0.5426985E-16 -0.1000000E+01
           6
  0.8844948E-01 -0.5437520E-01  0.4976940E-01   0.0000000E+00 -0.1000000E+01  0.2879941E-15
 -0.8844948E-01 -0.5437520E-01  0.4976940E-01   0.0000000E+00 -0.1000000E+01  0.2879941E-15
 -0.1002657E+00 -0.5437520E-01  0.1571907E-01   0.0000000E+00 -0.1000000E+01  0.2879941E-15
 -0.8844948E-01 -0.5437520E-01 -0.4976940E-01   0.0000000E+00 -0.1000000E+01  0.2879941E-15
  0.8844948E-01 -0.5437520E-01 -0.4976940E-01   0.0000000E+00 -0.1000000E+01  0.2879941E-15
  0.1002657E+00 -0.5437520E-01 -0.1571907E-01   0.0000000E+00 -0.1000000E+01  0.2879941E-15
           4
  0.8844948E-01  0.5437520E-01  0.4976940E-01   0.9841091E+00 -0.3370857E-15  0.1775651E+00
  0.8844948E-01 -0.5437520E-01  0.4976940E-01   0.9841091E+00 -0.3370857E-15  0.1775651E+00
  0.1002657E+00 -0.5437520E-01 -0.1571907E-01   0.9841091E+00 -0.3370857E-15  0.1775651E+00
  0.1002657E+00  0.5437520E-01 -0.1571907E-01   0.9841091E+00 -0.3370857E-15  0.1775651E+00
           4
 -0.8844948E-01  0.5437520E-01 -0.4976940E-01  -0.9841091E+00 -0.1498159E-15 -0.1775651E+00
 -0.8844948E-01 -0.5437520E-01 -0.4976940E-01  -0.9841091E+00 -0.1498159E-15 -0.1775651E+00
 -0.1002657E+00 -0.5437520E-01  0.1571907E-01  -0.9841091E+00 -0.1498159E-15 -0.1775651E+00
 -0.1002657E+00  0.5437520E-01  0.1571907E-01  -0.9841091E+00 -0.1498159E-15 -0.1775651E+00
           6
  0.1002657E+00  0.5437520E-01 -0.1571907E-01  -0.0000000E+00  0.1000000E+01  0.2879941E-15
  0.8844948E-01  0.5437520E-01 -0.4976940E-01  -0.0000000E+00  0.1000000E+01  0.2879941E-15
 -0.8844948E-01  0.5437520E-01 -0.4976940E-01  -0.0000000E+00  0.1000000E+01  0.2879941E-15
 -0.1002657E+00  0.5437520E-01  0.1571907E-01  -0.0000000E+00  0.1000000E+01  0.2879941E-15
 -0.8844948E-01  0.5437520E-01  0.4976940E-01  -0.0000000E+00  0.1000000E+01  0.2879941E-15
  0.8844948E-01  0.5437520E-01  0.4976940E-01  -0.0000000E+00  0.1000000E+01  0.2879941E-15
           4
  0.8844948E-01 -0.5437520E-01  0.4976940E-01  -0.0000000E+00 -0.0000000E+00  0.1000000E+01
  0.8844948E-01  0.5437520E-01  0.4976940E-01  -0.0000000E+00 -0.0000000E+00  0.1000000E+01
 -0.8844948E-01  0.5437520E-01  0.4976940E-01  -0.0000000E+00 -0.0000000E+00  0.1000000E+01
 -0.8844948E-01 -0.5437520E-01  0.4976940E-01  -0.0000000E+00 -0.0000000E+00  0.1000000E+01
           4
 -0.1002657E+00  0.5437520E-01  0.1571907E-01  -0.9447320E+00 -0.1383046E-15  0.3278435E+00
 -0.1002657E+00 -0.5437520E-01  0.1571907E-01  -0.9447320E+00 -0.1383046E-15  0.3278435E+00
 -0.8844948E-01 -0.5437520E-01  0.4976940E-01  -0.9447320E+00 -0.1383046E-15  0.3278435E+00
 -0.8844948E-01  0.5437520E-01  0.4976940E-01  -0.9447320E+00 -0.1383046E-15  0.3278435E+00
 BRILLOUIN-ZONE-CONVCELL_END
 ATOMS
   19    0.0000000000    4.5589585460    0.0000000000    0.0000000000   -0.0000174900    0.0000000000
   19    2.6494950310    0.0103473270    0.0000000000    0.0000000000    0.0000280300    0.0000000000
   12   -0.9063419100    0.0418983850    5.0231670320    0.0000000000   -0.0000396600    0.0000000000
   12   -0.9063419100    3.0642289860    5.0231670320    0.0000000000    0.0000803100    0.0000000000
   12   -0.9063419100    6.1163125410    5.0231670320    0.0000000000    0.0000657500    0.0000000000
   12    1.7431531220    4.5331398530    5.0231670320    0.0000000000   -0.0000143000    0.0000000000
   12    1.7431531220    7.6766942130    5.0231670320    0.0000000000    0.0000542900    0.0000000000
   12    1.7431531220    1.5852188010    5.0231670320    0.0000000000   -0.0000285500    0.0000000000
   14    0.0477362340    1.5181099140    2.2313684610    0.0000336200    0.0000207700    0.0000027200
   14    3.4385698800    1.5181099140    7.8149659050   -0.0000336200    0.0000207700   -0.0000027200
   14    3.5620476650    7.6728989890    7.7489897620   -0.0000208000    0.0000218500    0.0000104000
   14   -0.0757414220    7.6728989890    2.2973443030    0.0000208000    0.0000218500   -0.0000104000
   14    2.5705226970    6.1266768780    2.2761878920    0.0000129300   -0.0000169600   -0.0000032500
   14    0.9157835740    6.1266768780    7.7701460220   -0.0000129300   -0.0000169600    0.0000032500
   13    0.7853736640    3.0418825080    7.7983115600   -0.0000040300   -0.0000160000    0.0000267600
   13    2.7009325800    3.0418825080    2.2480225050    0.0000040300   -0.0000160000   -0.0000267600
    8   -0.0195347790    1.5058361400    3.8632287680   -0.0000592000   -0.0000130600   -0.0000332300
    8    3.5058408110    1.5058361400    6.1831055880    0.0000592000   -0.0000130600    0.0000332300
    8    3.5309975610    7.6624110970    6.1310550200   -0.0000261800   -0.0000157800    0.0000102400
    8   -0.0446913170    7.6624110970    3.9152790450    0.0000261800   -0.0000157800   -0.0000102400
    8    2.6062134160    6.1515197680    3.9010757130    0.0000535900    0.0000023300   -0.0000051000
    8    0.8800928280    6.1515197680    6.1452583520   -0.0000535900    0.0000023300    0.0000051000
    8    0.8181207580    3.0608756450    6.0681034780   -0.0000266300    0.0000426800    0.0000659400
    8    2.6681854860    3.0608756450    3.9782305870    0.0000266300    0.0000426800   -0.0000659400
    8    1.5346862790    1.8486313530    1.6587365240    0.0000566500   -0.0000230600    0.0000304600
    8    1.9516200180    1.8486313530    8.3875972390   -0.0000566500   -0.0000230600   -0.0000304600
    8    4.9705248270    9.1718846240    1.6789431170   -0.0000040200    0.0000249300    0.0000474100
    8   -1.4842185570    9.1718846240    8.3673907970    0.0000040200    0.0000249300   -0.0000474100
    8    2.1255046720    7.1192048340    8.3526716400   -0.0000535600    0.0000047800    0.0000588100
    8    1.3608015710    7.1192048340    1.6936624250    0.0000535600    0.0000047800   -0.0000588100
    8    4.0059973660    6.7371932160    1.6844474480   -0.0000352500    0.0000341000   -0.0000353300
    8   -0.5196911230    6.7371932160    8.3618866170    0.0000352500    0.0000341000    0.0000353300
    8    2.3353356700    4.6664267970    1.6230959040    0.0000125500   -0.0000403100    0.0000677700
    8    1.1509703870    4.6664267970    8.4232383110   -0.0000125500   -0.0000403100   -0.0000677700
    8   -0.7842921090    2.5571216650    8.4513619690   -0.0000063100    0.0000605900   -0.0000880300
    8    4.2705984320    2.5571216650    1.5949720950    0.0000063100    0.0000605900    0.0000880300
    8   -0.0228755910    4.6357596800    3.9574789280   -0.0000320200   -0.0000331900   -0.0000137400
    8    3.5091819140    4.6357596800    6.0888551360    0.0000320200   -0.0000331900    0.0000137400
    8    2.6311266850    9.1906654310    3.9913844520    0.0000277500   -0.0000670500   -0.0000487700
    8    0.8551796120    9.1906654310    6.0549493110   -0.0000277500   -0.0000670500    0.0000487700
    1   -0.0157805420    4.5352086500    2.9975281670   -0.0000377600    0.0000045100    0.0000504000
    1    3.5020869440    4.5352086500    7.0488058980    0.0000377600    0.0000045100   -0.0000504000
    1    2.5976599690    0.1533324960    3.0384738520    0.0000296900   -0.0000553200    0.0000016500
    1    0.8886462740    0.1533324960    7.0078602130   -0.0000296900   -0.0000553200   -0.0000016500
   19   -1.8126838200    4.5589585460   10.0463340640    0.0000000000   -0.0000174900    0.0000000000
   19    0.8368112110    0.0103473270   10.0463340640    0.0000000000    0.0000280300    0.0000000000
   19    5.2989900630    4.5589585460    0.0000000000    0.0000000000   -0.0000174900    0.0000000000
   12    4.3926481530    0.0418983850    5.0231670320    0.0000000000   -0.0000396600    0.0000000000
   12    4.3926481530    3.0642289860    5.0231670320    0.0000000000    0.0000803100    0.0000000000
   12    4.3926481530    6.1163125410    5.0231670320    0.0000000000    0.0000657500    0.0000000000
   19    3.4863062430    4.5589585460   10.0463340640    0.0000000000   -0.0000174900    0.0000000000
 FRAMES
1      0.0000000000    0.0000000000    0.0000000000      5.2989900630    0.0000000000    0.0000000000
1      0.0000000000    0.0000000000    0.0000000000      0.0000000000    9.1953692500    0.0000000000
1      0.0000000000    0.0000000000    0.0000000000     -1.8126838200    0.0000000000   10.0463340640
1     -1.8126838200    0.0000000000   10.0463340640      3.4863062430    0.0000000000   10.0463340640
1     -1.8126838200    0.0000000000   10.0463340640     -1.8126838200    9.1953692500   10.0463340640
1      0.0000000000    9.1953692500    0.0000000000      5.2989900630    9.1953692500    0.0000000000
1      0.0000000000    9.1953692500    0.0000000000     -1.8126838200    9.1953692500   10.0463340640
1     -1.8126838200    9.1953692500   10.0463340640      3.4863062430    9.1953692500   10.0463340640
1      5.2989900630    0.0000000000    0.0000000000      5.2989900630    9.1953692500    0.0000000000
1      5.2989900630    0.0000000000    0.0000000000      3.4863062430    0.0000000000   10.0463340640
1      3.4863062430    0.0000000000   10.0463340640      3.4863062430    9.1953692500   10.0463340640
1      5.2989900630    9.1953692500    0.0000000000      3.4863062430    9.1953692500   10.0463340640
