 INFO
nunit      1    1    1
unit   cell
celltype   primcell
shape   parapipedal
 END_INFO
 DIM-GROUP
           3           1
 PRIMVEC
    5.2989900630    0.0000000000    0.0000000000
    0.0000000000    9.1953692500    0.0000000000
   -1.8126838200    0.0000000000   10.0463340640
 CONVVEC
    5.2989900630    0.0000000000    0.0000000000
    0.0000000000    9.1953692500    0.0000000000
   -1.8126838200    0.0000000000   10.0463340640
 PRIMCOORD
          44           1
 19      0.0000000000     4.5320082900     0.0000000000     0.0000000000     0.0005185100     0.0000000000
 19      2.6494950310     0.0441093870     0.0000000000     0.0000000000    -0.0009595300     0.0000000000
 12     -0.9063419100     0.0392261160     5.0231670320     0.0000000000     0.0001508100     0.0000000000
 12     -0.9063419100     3.0642613750     5.0231670320     0.0000000000     0.0000341800     0.0000000000
 12     -0.9063419100     6.1164516290     5.0231670320     0.0000000000     0.0001286500     0.0000000000
 12      1.7431531220     4.5353145490     5.0231670320     0.0000000000    -0.0004028100     0.0000000000
 12      1.7431531220     7.6740795790     5.0231670320     0.0000000000    -0.0000798700     0.0000000000
 12      1.7431531220     1.5833588610     5.0231670320     0.0000000000     0.0004646500     0.0000000000
 14      0.0388045960     1.5181676140     2.2306225120    -0.0000237300    -0.0000334700     0.0006669900
 14      3.4475015190     1.5181676140     7.8157118540     0.0000237300    -0.0000334700    -0.0006669900
 14      3.5543662650     7.6720833040     7.7511376000     0.0001576800    -0.0001481000    -0.0000945100
 14     -0.0680600210     7.6720833040     2.2951964640    -0.0001576800    -0.0001481000     0.0000945100
 14      2.5777326580     6.1283973770     2.2731868430    -0.0001702300    -0.0001158000     0.0002728600
 14      0.9085736120     6.1283973770     7.7731470710     0.0001702300    -0.0001158000    -0.0002728600
 13      0.7945217700     3.0444971510     7.7967387050    -0.0001085600    -0.0000631600    -0.0002343900
 13      2.6917844730     3.0444971510     2.2495953600     0.0001085600    -0.0000631600     0.0002343900
  8     -0.0226287140     1.5047011460     3.8624134650     0.0000837700     0.0000012500     0.0007473100
  8      3.5089347460     1.5047011460     6.1839208910    -0.0000837700     0.0000012500    -0.0007473100
  8      3.5278334610     7.6608318050     6.1327605220     0.0002575600     0.0000505000    -0.0002110000
  8     -0.0415272180     7.6608318050     3.9135735420    -0.0002575600     0.0000505000     0.0002110000
  8      2.6092924300     6.1511510260     3.8985050510    -0.0001487200     0.0002568900     0.0006869300
  8      0.8770138130     6.1511510260     6.1478290140     0.0001487200     0.0002568900    -0.0006869300
  8      0.8194930150     3.0620537670     6.0672085000     0.0000006700    -0.0000737900    -0.0005382200
  8      2.6668132280     3.0620537670     3.9791255640    -0.0000006700    -0.0000737900     0.0005382200
  8      1.5193896620     1.8634039800     1.6541818720     0.0000142600    -0.0004950600    -0.0002053800
  8      1.9669166360     1.8634039800     8.3921518910    -0.0000142600    -0.0004950600     0.0002053800
  8      4.9706189180     9.1700439060     1.6785302100    -0.0000540600    -0.0002061700    -0.0001480400
  8     -1.4843126470     9.1700439060     8.3678037030     0.0000540600    -0.0002061700     0.0001480400
  8      2.1129444960     7.1288637430     8.3529076360     0.0003553400     0.0000084600     0.0001397300
  8      1.3733617470     7.1288637430     1.6934264280    -0.0003553400     0.0000084600    -0.0001397300
  8      4.0175383540     6.7303280990     1.6838076670     0.0001174400    -0.0000737400    -0.0001483700
  8     -0.5312321110     6.7303280990     8.3625263970    -0.0001174400    -0.0000737400     0.0001483700
  8      2.3355916180     4.6689924010     1.6213969600    -0.0002378000     0.0005635900    -0.0000173500
  8      1.1507144390     4.6689924010     8.4249372550     0.0002378000     0.0005635900     0.0000173500
  8     -0.7666191120     2.5455337620     8.4539090510    -0.0006445400     0.0002420100     0.0001856100
  8      4.2529254350     2.5455337620     1.5924250130     0.0006445400     0.0002420100    -0.0001856100
  8     -0.0234866200     4.6362382060     3.9554046220     0.0001361200    -0.0000621600     0.0004209300
  8      3.5097929430     4.6362382060     6.0909294430    -0.0001361200    -0.0000621600    -0.0004209300
  8      2.6303315620     9.1885477870     3.9902276370     0.0001568000    -0.0000186500     0.0004330300
  8      0.8559747350     9.1885477870     6.0561061260    -0.0001568000    -0.0000186500    -0.0004330300
  1     -0.0160317250     4.5527794460     2.9937663770     0.0000180100    -0.0003035900     0.0005011000
  1      3.5023381270     4.5527794460     7.0525676870    -0.0000180100    -0.0003035900    -0.0005011000
  1      2.6077502140     0.1280195960     3.0335477600    -0.0002054900     0.0005436800     0.0005700300
  1      0.8785560290     0.1280195960     7.0127863050     0.0002054900     0.0005436800    -0.0005700300
 CONVCOORD
          44           1
 19      0.0000000000     4.5320082900     0.0000000000
 19      2.6494950310     0.0441093870     0.0000000000
 12     -0.9063419100     0.0392261160     5.0231670320
 12     -0.9063419100     3.0642613750     5.0231670320
 12     -0.9063419100     6.1164516290     5.0231670320
 12      1.7431531220     4.5353145490     5.0231670320
 12      1.7431531220     7.6740795790     5.0231670320
 12      1.7431531220     1.5833588610     5.0231670320
 14      0.0388045960     1.5181676140     2.2306225120
 14      3.4475015190     1.5181676140     7.8157118540
 14      3.5543662650     7.6720833040     7.7511376000
 14     -0.0680600210     7.6720833040     2.2951964640
 14      2.5777326580     6.1283973770     2.2731868430
 14      0.9085736120     6.1283973770     7.7731470710
 13      0.7945217700     3.0444971510     7.7967387050
 13      2.6917844730     3.0444971510     2.2495953600
  8     -0.0226287140     1.5047011460     3.8624134650
  8      3.5089347460     1.5047011460     6.1839208910
  8      3.5278334610     7.6608318050     6.1327605220
  8     -0.0415272180     7.6608318050     3.9135735420
  8      2.6092924300     6.1511510260     3.8985050510
  8      0.8770138130     6.1511510260     6.1478290140
  8      0.8194930150     3.0620537670     6.0672085000
  8      2.6668132280     3.0620537670     3.9791255640
  8      1.5193896620     1.8634039800     1.6541818720
  8      1.9669166360     1.8634039800     8.3921518910
  8      4.9706189180     9.1700439060     1.6785302100
  8     -1.4843126470     9.1700439060     8.3678037030
  8      2.1129444960     7.1288637430     8.3529076360
  8      1.3733617470     7.1288637430     1.6934264280
  8      4.0175383540     6.7303280990     1.6838076670
  8     -0.5312321110     6.7303280990     8.3625263970
  8      2.3355916180     4.6689924010     1.6213969600
  8      1.1507144390     4.6689924010     8.4249372550
  8     -0.7666191120     2.5455337620     8.4539090510
  8      4.2529254350     2.5455337620     1.5924250130
  8     -0.0234866200     4.6362382060     3.9554046220
  8      3.5097929430     4.6362382060     6.0909294430
  8      2.6303315620     9.1885477870     3.9902276370
  8      0.8559747350     9.1885477870     6.0561061260
  1     -0.0160317250     4.5527794460     2.9937663770
  1      3.5023381270     4.5527794460     7.0525676870
  1      2.6077502140     0.1280195960     3.0335477600
  1      0.8785560290     0.1280195960     7.0127863050
 RECIP-PRIMVEC
    0.1887152057   -0.0000000000    0.0340503310

    0.0000000000    0.1087503909   -0.0000000000

    0.0000000000    0.0000000000    0.0995387963

 RECIP-CONVVEC
    0.1887152057   -0.0000000000    0.0340503310

    0.0000000000    0.1087503909   -0.0000000000

    0.0000000000    0.0000000000    0.0995387963

 WIGNER-SEITZ-PRIMCELL
           4
 -0.2649495E+01  0.4597685E+01 -0.4708646E+01  -0.3278435E+00 -0.1009766E-15 -0.9447320E+00
 -0.8368112E+00  0.4597685E+01 -0.5337688E+01  -0.3278435E+00 -0.1009766E-15 -0.9447320E+00
 -0.8368112E+00 -0.4597685E+01 -0.5337688E+01  -0.3278435E+00 -0.1009766E-15 -0.9447320E+00
 -0.2649495E+01 -0.4597685E+01 -0.4708646E+01  -0.3278435E+00 -0.1009766E-15 -0.9447320E+00
           4
 -0.2649495E+01  0.4597685E+01 -0.4708646E+01  -0.1000000E+01  0.4829488E-16  0.4554862E-32
 -0.2649495E+01 -0.4597685E+01 -0.4708646E+01  -0.1000000E+01  0.4829488E-16  0.4554862E-32
 -0.2649495E+01 -0.4597685E+01  0.4708646E+01  -0.1000000E+01  0.4829488E-16  0.4554862E-32
 -0.2649495E+01  0.4597685E+01  0.4708646E+01  -0.1000000E+01  0.4829488E-16  0.4554862E-32
           6
  0.2649495E+01 -0.4597685E+01  0.4708646E+01  -0.0000000E+00 -0.1000000E+01  0.1065828E-14
  0.8368112E+00 -0.4597685E+01  0.5337688E+01  -0.0000000E+00 -0.1000000E+01  0.1065828E-14
 -0.2649495E+01 -0.4597685E+01  0.4708646E+01  -0.0000000E+00 -0.1000000E+01  0.1065828E-14
 -0.2649495E+01 -0.4597685E+01 -0.4708646E+01  -0.0000000E+00 -0.1000000E+01  0.1065828E-14
 -0.8368112E+00 -0.4597685E+01 -0.5337688E+01  -0.0000000E+00 -0.1000000E+01  0.1065828E-14
  0.2649495E+01 -0.4597685E+01 -0.4708646E+01  -0.0000000E+00 -0.1000000E+01  0.1065828E-14
           4
  0.2649495E+01 -0.4597685E+01 -0.4708646E+01   0.1775651E+00 -0.2181216E-15 -0.9841091E+00
 -0.8368112E+00 -0.4597685E+01 -0.5337688E+01   0.1775651E+00 -0.2181216E-15 -0.9841091E+00
 -0.8368112E+00  0.4597685E+01 -0.5337688E+01   0.1775651E+00 -0.2181216E-15 -0.9841091E+00
  0.2649495E+01  0.4597685E+01 -0.4708646E+01   0.1775651E+00 -0.2181216E-15 -0.9841091E+00
           4
 -0.2649495E+01  0.4597685E+01  0.4708646E+01  -0.1775651E+00 -0.0000000E+00  0.9841091E+00
 -0.2649495E+01 -0.4597685E+01  0.4708646E+01  -0.1775651E+00 -0.0000000E+00  0.9841091E+00
  0.8368112E+00 -0.4597685E+01  0.5337688E+01  -0.1775651E+00 -0.0000000E+00  0.9841091E+00
  0.8368112E+00  0.4597685E+01  0.5337688E+01  -0.1775651E+00 -0.0000000E+00  0.9841091E+00
           6
  0.2649495E+01  0.4597685E+01 -0.4708646E+01   0.0000000E+00  0.1000000E+01  0.1065828E-14
 -0.8368112E+00  0.4597685E+01 -0.5337688E+01   0.0000000E+00  0.1000000E+01  0.1065828E-14
 -0.2649495E+01  0.4597685E+01 -0.4708646E+01   0.0000000E+00  0.1000000E+01  0.1065828E-14
 -0.2649495E+01  0.4597685E+01  0.4708646E+01   0.0000000E+00  0.1000000E+01  0.1065828E-14
  0.8368112E+00  0.4597685E+01  0.5337688E+01   0.0000000E+00  0.1000000E+01  0.1065828E-14
  0.2649495E+01  0.4597685E+01  0.4708646E+01   0.0000000E+00  0.1000000E+01  0.1065828E-14
           4
  0.2649495E+01  0.4597685E+01  0.4708646E+01   0.1000000E+01 -0.4829488E-16  0.0000000E+00
  0.2649495E+01 -0.4597685E+01  0.4708646E+01   0.1000000E+01 -0.4829488E-16  0.0000000E+00
  0.2649495E+01 -0.4597685E+01 -0.4708646E+01   0.1000000E+01 -0.4829488E-16  0.0000000E+00
  0.2649495E+01  0.4597685E+01 -0.4708646E+01   0.1000000E+01 -0.4829488E-16  0.0000000E+00
           4
  0.8368112E+00 -0.4597685E+01  0.5337688E+01   0.3278435E+00  0.3334111E-16  0.9447320E+00
  0.2649495E+01 -0.4597685E+01  0.4708646E+01   0.3278435E+00  0.3334111E-16  0.9447320E+00
  0.2649495E+01  0.4597685E+01  0.4708646E+01   0.3278435E+00  0.3334111E-16  0.9447320E+00
  0.8368112E+00  0.4597685E+01  0.5337688E+01   0.3278435E+00  0.3334111E-16  0.9447320E+00
 WIGNER-SEITZ-PRIMCELL_END
 WIGNER-SEITZ-CONVCELL
           4
 -0.2649495E+01  0.4597685E+01 -0.4708646E+01  -0.3278435E+00 -0.1009766E-15 -0.9447320E+00
 -0.8368112E+00  0.4597685E+01 -0.5337688E+01  -0.3278435E+00 -0.1009766E-15 -0.9447320E+00
 -0.8368112E+00 -0.4597685E+01 -0.5337688E+01  -0.3278435E+00 -0.1009766E-15 -0.9447320E+00
 -0.2649495E+01 -0.4597685E+01 -0.4708646E+01  -0.3278435E+00 -0.1009766E-15 -0.9447320E+00
           4
 -0.2649495E+01  0.4597685E+01 -0.4708646E+01  -0.1000000E+01  0.4829488E-16  0.4554862E-32
 -0.2649495E+01 -0.4597685E+01 -0.4708646E+01  -0.1000000E+01  0.4829488E-16  0.4554862E-32
 -0.2649495E+01 -0.4597685E+01  0.4708646E+01  -0.1000000E+01  0.4829488E-16  0.4554862E-32
 -0.2649495E+01  0.4597685E+01  0.4708646E+01  -0.1000000E+01  0.4829488E-16  0.4554862E-32
           6
  0.2649495E+01 -0.4597685E+01  0.4708646E+01  -0.0000000E+00 -0.1000000E+01  0.1065828E-14
  0.8368112E+00 -0.4597685E+01  0.5337688E+01  -0.0000000E+00 -0.1000000E+01  0.1065828E-14
 -0.2649495E+01 -0.4597685E+01  0.4708646E+01  -0.0000000E+00 -0.1000000E+01  0.1065828E-14
 -0.2649495E+01 -0.4597685E+01 -0.4708646E+01  -0.0000000E+00 -0.1000000E+01  0.1065828E-14
 -0.8368112E+00 -0.4597685E+01 -0.5337688E+01  -0.0000000E+00 -0.1000000E+01  0.1065828E-14
  0.2649495E+01 -0.4597685E+01 -0.4708646E+01  -0.0000000E+00 -0.1000000E+01  0.1065828E-14
           4
  0.2649495E+01 -0.4597685E+01 -0.4708646E+01   0.1775651E+00 -0.2181216E-15 -0.9841091E+00
 -0.8368112E+00 -0.4597685E+01 -0.5337688E+01   0.1775651E+00 -0.2181216E-15 -0.9841091E+00
 -0.8368112E+00  0.4597685E+01 -0.5337688E+01   0.1775651E+00 -0.2181216E-15 -0.9841091E+00
  0.2649495E+01  0.4597685E+01 -0.4708646E+01   0.1775651E+00 -0.2181216E-15 -0.9841091E+00
           4
 -0.2649495E+01  0.4597685E+01  0.4708646E+01  -0.1775651E+00 -0.0000000E+00  0.9841091E+00
 -0.2649495E+01 -0.4597685E+01  0.4708646E+01  -0.1775651E+00 -0.0000000E+00  0.9841091E+00
  0.8368112E+00 -0.4597685E+01  0.5337688E+01  -0.1775651E+00 -0.0000000E+00  0.9841091E+00
  0.8368112E+00  0.4597685E+01  0.5337688E+01  -0.1775651E+00 -0.0000000E+00  0.9841091E+00
           6
  0.2649495E+01  0.4597685E+01 -0.4708646E+01   0.0000000E+00  0.1000000E+01  0.1065828E-14
 -0.8368112E+00  0.4597685E+01 -0.5337688E+01   0.0000000E+00  0.1000000E+01  0.1065828E-14
 -0.2649495E+01  0.4597685E+01 -0.4708646E+01   0.0000000E+00  0.1000000E+01  0.1065828E-14
 -0.2649495E+01  0.4597685E+01  0.4708646E+01   0.0000000E+00  0.1000000E+01  0.1065828E-14
  0.8368112E+00  0.4597685E+01  0.5337688E+01   0.0000000E+00  0.1000000E+01  0.1065828E-14
  0.2649495E+01  0.4597685E+01  0.4708646E+01   0.0000000E+00  0.1000000E+01  0.1065828E-14
           4
  0.2649495E+01  0.4597685E+01  0.4708646E+01   0.1000000E+01 -0.4829488E-16  0.0000000E+00
  0.2649495E+01 -0.4597685E+01  0.4708646E+01   0.1000000E+01 -0.4829488E-16  0.0000000E+00
  0.2649495E+01 -0.4597685E+01 -0.4708646E+01   0.1000000E+01 -0.4829488E-16  0.0000000E+00
  0.2649495E+01  0.4597685E+01 -0.4708646E+01   0.1000000E+01 -0.4829488E-16  0.0000000E+00
           4
  0.8368112E+00 -0.4597685E+01  0.5337688E+01   0.3278435E+00  0.3334111E-16  0.9447320E+00
  0.2649495E+01 -0.4597685E+01  0.4708646E+01   0.3278435E+00  0.3334111E-16  0.9447320E+00
  0.2649495E+01  0.4597685E+01  0.4708646E+01   0.3278435E+00  0.3334111E-16  0.9447320E+00
  0.8368112E+00  0.4597685E+01  0.5337688E+01   0.3278435E+00  0.3334111E-16  0.9447320E+00
 WIGNER-SEITZ-CONVCELL_END
 BRILLOUIN-ZONE-PRIMCELL
           4
  0.1002657E+00  0.5437520E-01 -0.1571907E-01   0.9447320E+00  0.5532186E-16 -0.3278435E+00
  0.1002657E+00 -0.5437520E-01 -0.1571907E-01   0.9447320E+00  0.5532186E-16 -0.3278435E+00
  0.8844948E-01 -0.5437520E-01 -0.4976940E-01   0.9447320E+00  0.5532186E-16 -0.3278435E+00
  0.8844948E-01  0.5437520E-01 -0.4976940E-01   0.9447320E+00  0.5532186E-16 -0.3278435E+00
           4
 -0.8844948E-01  0.5437520E-01 -0.4976940E-01   0.0000000E+00 -0.5426985E-16 -0.1000000E+01
  0.8844948E-01  0.5437520E-01 -0.4976940E-01   0.0000000E+00 -0.5426985E-16 -0.1000000E+01
  0.8844948E-01 -0.5437520E-01 -0.4976940E-01   0.0000000E+00 -0.5426985E-16 -0.1000000E+01
 -0.8844948E-01 -0.5437520E-01 -0.4976940E-01   0.0000000E+00 -0.5426985E-16 -0.1000000E+01
           6
  0.8844948E-01 -0.5437520E-01  0.4976940E-01   0.0000000E+00 -0.1000000E+01  0.2879941E-15
 -0.8844948E-01 -0.5437520E-01  0.4976940E-01   0.0000000E+00 -0.1000000E+01  0.2879941E-15
 -0.1002657E+00 -0.5437520E-01  0.1571907E-01   0.0000000E+00 -0.1000000E+01  0.2879941E-15
 -0.8844948E-01 -0.5437520E-01 -0.4976940E-01   0.0000000E+00 -0.1000000E+01  0.2879941E-15
  0.8844948E-01 -0.5437520E-01 -0.4976940E-01   0.0000000E+00 -0.1000000E+01  0.2879941E-15
  0.1002657E+00 -0.5437520E-01 -0.1571907E-01   0.0000000E+00 -0.1000000E+01  0.2879941E-15
           4
  0.8844948E-01  0.5437520E-01  0.4976940E-01   0.9841091E+00 -0.3370857E-15  0.1775651E+00
  0.8844948E-01 -0.5437520E-01  0.4976940E-01   0.9841091E+00 -0.3370857E-15  0.1775651E+00
  0.1002657E+00 -0.5437520E-01 -0.1571907E-01   0.9841091E+00 -0.3370857E-15  0.1775651E+00
  0.1002657E+00  0.5437520E-01 -0.1571907E-01   0.9841091E+00 -0.3370857E-15  0.1775651E+00
           4
 -0.8844948E-01  0.5437520E-01 -0.4976940E-01  -0.9841091E+00 -0.1498159E-15 -0.1775651E+00
 -0.8844948E-01 -0.5437520E-01 -0.4976940E-01  -0.9841091E+00 -0.1498159E-15 -0.1775651E+00
 -0.1002657E+00 -0.5437520E-01  0.1571907E-01  -0.9841091E+00 -0.1498159E-15 -0.1775651E+00
 -0.1002657E+00  0.5437520E-01  0.1571907E-01  -0.9841091E+00 -0.1498159E-15 -0.1775651E+00
           6
  0.1002657E+00  0.5437520E-01 -0.1571907E-01  -0.0000000E+00  0.1000000E+01  0.2879941E-15
  0.8844948E-01  0.5437520E-01 -0.4976940E-01  -0.0000000E+00  0.1000000E+01  0.2879941E-15
 -0.8844948E-01  0.5437520E-01 -0.4976940E-01  -0.0000000E+00  0.1000000E+01  0.2879941E-15
 -0.1002657E+00  0.5437520E-01  0.1571907E-01  -0.0000000E+00  0.1000000E+01  0.2879941E-15
 -0.8844948E-01  0.5437520E-01  0.4976940E-01  -0.0000000E+00  0.1000000E+01  0.2879941E-15
  0.8844948E-01  0.5437520E-01  0.4976940E-01  -0.0000000E+00  0.1000000E+01  0.2879941E-15
           4
  0.8844948E-01 -0.5437520E-01  0.4976940E-01  -0.0000000E+00 -0.0000000E+00  0.1000000E+01
  0.8844948E-01  0.5437520E-01  0.4976940E-01  -0.0000000E+00 -0.0000000E+00  0.1000000E+01
 -0.8844948E-01  0.5437520E-01  0.4976940E-01  -0.0000000E+00 -0.0000000E+00  0.1000000E+01
 -0.8844948E-01 -0.5437520E-01  0.4976940E-01  -0.0000000E+00 -0.0000000E+00  0.1000000E+01
           4
 -0.1002657E+00  0.5437520E-01  0.1571907E-01  -0.9447320E+00 -0.1383046E-15  0.3278435E+00
 -0.1002657E+00 -0.5437520E-01  0.1571907E-01  -0.9447320E+00 -0.1383046E-15  0.3278435E+00
 -0.8844948E-01 -0.5437520E-01  0.4976940E-01  -0.9447320E+00 -0.1383046E-15  0.3278435E+00
 -0.8844948E-01  0.5437520E-01  0.4976940E-01  -0.9447320E+00 -0.1383046E-15  0.3278435E+00
 BRILLOUIN-ZONE-PRIMCELL_END
 BRILLOUIN-ZONE-CONVCELL
           4
  0.1002657E+00  0.5437520E-01 -0.1571907E-01   0.9447320E+00  0.5532186E-16 -0.3278435E+00
  0.1002657E+00 -0.5437520E-01 -0.1571907E-01   0.9447320E+00  0.5532186E-16 -0.3278435E+00
  0.8844948E-01 -0.5437520E-01 -0.4976940E-01   0.9447320E+00  0.5532186E-16 -0.3278435E+00
  0.8844948E-01  0.5437520E-01 -0.4976940E-01   0.9447320E+00  0.5532186E-16 -0.3278435E+00
           4
 -0.8844948E-01  0.5437520E-01 -0.4976940E-01   0.0000000E+00 -0.5426985E-16 -0.1000000E+01
  0.8844948E-01  0.5437520E-01 -0.4976940E-01   0.0000000E+00 -0.5426985E-16 -0.1000000E+01
  0.8844948E-01 -0.5437520E-01 -0.4976940E-01   0.0000000E+00 -0.5426985E-16 -0.1000000E+01
 -0.8844948E-01 -0.5437520E-01 -0.4976940E-01   0.0000000E+00 -0.5426985E-16 -0.1000000E+01
           6
  0.8844948E-01 -0.5437520E-01  0.4976940E-01   0.0000000E+00 -0.1000000E+01  0.2879941E-15
 -0.8844948E-01 -0.5437520E-01  0.4976940E-01   0.0000000E+00 -0.1000000E+01  0.2879941E-15
 -0.1002657E+00 -0.5437520E-01  0.1571907E-01   0.0000000E+00 -0.1000000E+01  0.2879941E-15
 -0.8844948E-01 -0.5437520E-01 -0.4976940E-01   0.0000000E+00 -0.1000000E+01  0.2879941E-15
  0.8844948E-01 -0.5437520E-01 -0.4976940E-01   0.0000000E+00 -0.1000000E+01  0.2879941E-15
  0.1002657E+00 -0.5437520E-01 -0.1571907E-01   0.0000000E+00 -0.1000000E+01  0.2879941E-15
           4
  0.8844948E-01  0.5437520E-01  0.4976940E-01   0.9841091E+00 -0.3370857E-15  0.1775651E+00
  0.8844948E-01 -0.5437520E-01  0.4976940E-01   0.9841091E+00 -0.3370857E-15  0.1775651E+00
  0.1002657E+00 -0.5437520E-01 -0.1571907E-01   0.9841091E+00 -0.3370857E-15  0.1775651E+00
  0.1002657E+00  0.5437520E-01 -0.1571907E-01   0.9841091E+00 -0.3370857E-15  0.1775651E+00
           4
 -0.8844948E-01  0.5437520E-01 -0.4976940E-01  -0.9841091E+00 -0.1498159E-15 -0.1775651E+00
 -0.8844948E-01 -0.5437520E-01 -0.4976940E-01  -0.9841091E+00 -0.1498159E-15 -0.1775651E+00
 -0.1002657E+00 -0.5437520E-01  0.1571907E-01  -0.9841091E+00 -0.1498159E-15 -0.1775651E+00
 -0.1002657E+00  0.5437520E-01  0.1571907E-01  -0.9841091E+00 -0.1498159E-15 -0.1775651E+00
           6
  0.1002657E+00  0.5437520E-01 -0.1571907E-01  -0.0000000E+00  0.1000000E+01  0.2879941E-15
  0.8844948E-01  0.5437520E-01 -0.4976940E-01  -0.0000000E+00  0.1000000E+01  0.2879941E-15
 -0.8844948E-01  0.5437520E-01 -0.4976940E-01  -0.0000000E+00  0.1000000E+01  0.2879941E-15
 -0.1002657E+00  0.5437520E-01  0.1571907E-01  -0.0000000E+00  0.1000000E+01  0.2879941E-15
 -0.8844948E-01  0.5437520E-01  0.4976940E-01  -0.0000000E+00  0.1000000E+01  0.2879941E-15
  0.8844948E-01  0.5437520E-01  0.4976940E-01  -0.0000000E+00  0.1000000E+01  0.2879941E-15
           4
  0.8844948E-01 -0.5437520E-01  0.4976940E-01  -0.0000000E+00 -0.0000000E+00  0.1000000E+01
  0.8844948E-01  0.5437520E-01  0.4976940E-01  -0.0000000E+00 -0.0000000E+00  0.1000000E+01
 -0.8844948E-01  0.5437520E-01  0.4976940E-01  -0.0000000E+00 -0.0000000E+00  0.1000000E+01
 -0.8844948E-01 -0.5437520E-01  0.4976940E-01  -0.0000000E+00 -0.0000000E+00  0.1000000E+01
           4
 -0.1002657E+00  0.5437520E-01  0.1571907E-01  -0.9447320E+00 -0.1383046E-15  0.3278435E+00
 -0.1002657E+00 -0.5437520E-01  0.1571907E-01  -0.9447320E+00 -0.1383046E-15  0.3278435E+00
 -0.8844948E-01 -0.5437520E-01  0.4976940E-01  -0.9447320E+00 -0.1383046E-15  0.3278435E+00
 -0.8844948E-01  0.5437520E-01  0.4976940E-01  -0.9447320E+00 -0.1383046E-15  0.3278435E+00
 BRILLOUIN-ZONE-CONVCELL_END
 ATOMS
   19    0.0000000000    4.5320082900    0.0000000000    0.0000000000    0.0005185100    0.0000000000
   19    2.6494950310    0.0441093870    0.0000000000    0.0000000000   -0.0009595300    0.0000000000
   12   -0.9063419100    0.0392261160    5.0231670320    0.0000000000    0.0001508100    0.0000000000
   12   -0.9063419100    3.0642613750    5.0231670320    0.0000000000    0.0000341800    0.0000000000
   12   -0.9063419100    6.1164516290    5.0231670320    0.0000000000    0.0001286500    0.0000000000
   12    1.7431531220    4.5353145490    5.0231670320    0.0000000000   -0.0004028100    0.0000000000
   12    1.7431531220    7.6740795790    5.0231670320    0.0000000000   -0.0000798700    0.0000000000
   12    1.7431531220    1.5833588610    5.0231670320    0.0000000000    0.0004646500    0.0000000000
   14    0.0388045960    1.5181676140    2.2306225120   -0.0000237300   -0.0000334700    0.0006669900
   14    3.4475015190    1.5181676140    7.8157118540    0.0000237300   -0.0000334700   -0.0006669900
   14    3.5543662650    7.6720833040    7.7511376000    0.0001576800   -0.0001481000   -0.0000945100
   14   -0.0680600210    7.6720833040    2.2951964640   -0.0001576800   -0.0001481000    0.0000945100
   14    2.5777326580    6.1283973770    2.2731868430   -0.0001702300   -0.0001158000    0.0002728600
   14    0.9085736120    6.1283973770    7.7731470710    0.0001702300   -0.0001158000   -0.0002728600
   13    0.7945217700    3.0444971510    7.7967387050   -0.0001085600   -0.0000631600   -0.0002343900
   13    2.6917844730    3.0444971510    2.2495953600    0.0001085600   -0.0000631600    0.0002343900
    8   -0.0226287140    1.5047011460    3.8624134650    0.0000837700    0.0000012500    0.0007473100
    8    3.5089347460    1.5047011460    6.1839208910   -0.0000837700    0.0000012500   -0.0007473100
    8    3.5278334610    7.6608318050    6.1327605220    0.0002575600    0.0000505000   -0.0002110000
    8   -0.0415272180    7.6608318050    3.9135735420   -0.0002575600    0.0000505000    0.0002110000
    8    2.6092924300    6.1511510260    3.8985050510   -0.0001487200    0.0002568900    0.0006869300
    8    0.8770138130    6.1511510260    6.1478290140    0.0001487200    0.0002568900   -0.0006869300
    8    0.8194930150    3.0620537670    6.0672085000    0.0000006700   -0.0000737900   -0.0005382200
    8    2.6668132280    3.0620537670    3.9791255640   -0.0000006700   -0.0000737900    0.0005382200
    8    1.5193896620    1.8634039800    1.6541818720    0.0000142600   -0.0004950600   -0.0002053800
    8    1.9669166360    1.8634039800    8.3921518910   -0.0000142600   -0.0004950600    0.0002053800
    8    4.9706189180    9.1700439060    1.6785302100   -0.0000540600   -0.0002061700   -0.0001480400
    8   -1.4843126470    9.1700439060    8.3678037030    0.0000540600   -0.0002061700    0.0001480400
    8    2.1129444960    7.1288637430    8.3529076360    0.0003553400    0.0000084600    0.0001397300
    8    1.3733617470    7.1288637430    1.6934264280   -0.0003553400    0.0000084600   -0.0001397300
    8    4.0175383540    6.7303280990    1.6838076670    0.0001174400   -0.0000737400   -0.0001483700
    8   -0.5312321110    6.7303280990    8.3625263970   -0.0001174400   -0.0000737400    0.0001483700
    8    2.3355916180    4.6689924010    1.6213969600   -0.0002378000    0.0005635900   -0.0000173500
    8    1.1507144390    4.6689924010    8.4249372550    0.0002378000    0.0005635900    0.0000173500
    8   -0.7666191120    2.5455337620    8.4539090510   -0.0006445400    0.0002420100    0.0001856100
    8    4.2529254350    2.5455337620    1.5924250130    0.0006445400    0.0002420100   -0.0001856100
    8   -0.0234866200    4.6362382060    3.9554046220    0.0001361200   -0.0000621600    0.0004209300
    8    3.5097929430    4.6362382060    6.0909294430   -0.0001361200   -0.0000621600   -0.0004209300
    8    2.6303315620    9.1885477870    3.9902276370    0.0001568000   -0.0000186500    0.0004330300
    8    0.8559747350    9.1885477870    6.0561061260   -0.0001568000   -0.0000186500   -0.0004330300
    1   -0.0160317250    4.5527794460    2.9937663770    0.0000180100   -0.0003035900    0.0005011000
    1    3.5023381270    4.5527794460    7.0525676870   -0.0000180100   -0.0003035900   -0.0005011000
    1    2.6077502140    0.1280195960    3.0335477600   -0.0002054900    0.0005436800    0.0005700300
    1    0.8785560290    0.1280195960    7.0127863050    0.0002054900    0.0005436800   -0.0005700300
   19   -1.8126838200    4.5320082900   10.0463340640    0.0000000000    0.0005185100    0.0000000000
   19    0.8368112110    0.0441093870   10.0463340640    0.0000000000   -0.0009595300    0.0000000000
   19    5.2989900630    4.5320082900    0.0000000000    0.0000000000    0.0005185100    0.0000000000
   12    4.3926481530    0.0392261160    5.0231670320    0.0000000000    0.0001508100    0.0000000000
   12    4.3926481530    3.0642613750    5.0231670320    0.0000000000    0.0000341800    0.0000000000
   12    4.3926481530    6.1164516290    5.0231670320    0.0000000000    0.0001286500    0.0000000000
   19    3.4863062430    4.5320082900   10.0463340640    0.0000000000    0.0005185100    0.0000000000
 FRAMES
1      0.0000000000    0.0000000000    0.0000000000      5.2989900630    0.0000000000    0.0000000000
1      0.0000000000    0.0000000000    0.0000000000      0.0000000000    9.1953692500    0.0000000000
1      0.0000000000    0.0000000000    0.0000000000     -1.8126838200    0.0000000000   10.0463340640
1     -1.8126838200    0.0000000000   10.0463340640      3.4863062430    0.0000000000   10.0463340640
1     -1.8126838200    0.0000000000   10.0463340640     -1.8126838200    9.1953692500   10.0463340640
1      0.0000000000    9.1953692500    0.0000000000      5.2989900630    9.1953692500    0.0000000000
1      0.0000000000    9.1953692500    0.0000000000     -1.8126838200    9.1953692500   10.0463340640
1     -1.8126838200    9.1953692500   10.0463340640      3.4863062430    9.1953692500   10.0463340640
1      5.2989900630    0.0000000000    0.0000000000      5.2989900630    9.1953692500    0.0000000000
1      5.2989900630    0.0000000000    0.0000000000      3.4863062430    0.0000000000   10.0463340640
1      3.4863062430    0.0000000000   10.0463340640      3.4863062430    9.1953692500   10.0463340640
1      5.2989900630    9.1953692500    0.0000000000      3.4863062430    9.1953692500   10.0463340640
