 INFO
nunit      1    1    1
unit   cell
celltype   primcell
shape   parapipedal
 END_INFO
 DIM-GROUP
           3           1
 PRIMVEC
    5.3281860980    0.0000000000    0.0000000000
    0.0000000000    9.2662530960    0.0000000000
   -1.9193011480    0.0000000000   10.2488652590
 CONVVEC
    5.3281860980    0.0000000000    0.0000000000
    0.0000000000    9.2662530960    0.0000000000
   -1.9193011480    0.0000000000   10.2488652590
 PRIMCOORD
          44           1
 19      0.0000000000     4.5442399600     0.0000000000     0.0000000000    -0.0000263200     0.0000000000
 19      2.6640931540     0.0519079310     0.0000000000     0.0000000000    -0.0000539000     0.0000000000
 12     -0.9596482350     0.0564597940     5.1244308730     0.0000000000     0.0001743500     0.0000000000
 12     -0.9596482350     6.1825034410     5.1244308730     0.0000000000    -0.0000562300     0.0000000000
 12      1.7044449030     4.5953414500     5.1244308730     0.0000000000    -0.0001380700     0.0000000000
 12      1.7044449030     7.7421147780     5.1244308730     0.0000000000     0.0000006800     0.0000000000
 12      1.7044449030     1.5797671480     5.1244308730     0.0000000000     0.0000135400     0.0000000000
 14      0.0377695910     1.5122554400     2.3077273520     0.0000772800     0.0000710600    -0.0000361500
 14      3.3711201990     1.5122554400     7.9411347120    -0.0000772800     0.0000710600     0.0000361500
 14      3.5145475880     7.7301013450     7.8644042010     0.0000644900    -0.0000504500    -0.0000323400
 14     -0.1056575440     7.7301013450     2.3844575560    -0.0000644900    -0.0000504500     0.0000323400
 14      2.5581467660     6.1770617380     2.3697041630    -0.0000620600     0.0000127300     0.0000671000
 14      0.8507430380     6.1770617380     7.8791575930     0.0000620600     0.0000127300    -0.0000671000
 13      0.7045724960     3.0644374820     7.9109121950     0.0000023600     0.0000652100     0.0000585400
 13      2.7043178120     3.0644374820     2.3379494080    -0.0000023600     0.0000652100    -0.0000585400
  8     -0.0169421940     1.4614452250     3.9366710940     0.0000645400    -0.0001275700     0.0000047900
  8      3.4258321170     1.4614452250     6.3121912770    -0.0000645400    -0.0001275700    -0.0000047900
  8      3.4949232880     7.7334553060     6.2438000160     0.0000062700    -0.0000127800    -0.0000521200
  8     -0.0860332250     7.7334553060     4.0050620380    -0.0000062700    -0.0000127800     0.0000521200
  8      2.5866003430     6.2066922020     3.9981185210     0.0000322700    -0.0000054500     0.0000604900
  8      0.8222892510     6.2066922020     6.2507435330    -0.0000322700    -0.0000054500    -0.0000604900
  8      0.7679358200     3.0880369200     6.1639461230     0.0000613500     0.0000543200     0.0000753200
  8      2.6409542540     3.0880369200     4.0849150190    -0.0000613500     0.0000543200    -0.0000753200
  8      1.5141648400     1.8996487500     1.7310586910     0.0001104800    -0.0000088800     0.0000349400
  8      1.8947252390     1.8996487500     8.5178024510    -0.0001104800    -0.0000088800    -0.0000349400
  8     -0.3062491770     9.2324747750     1.7392011760    -0.0000260800     0.0000393400    -0.0000011400
  8      3.7151392550     9.2324747750     8.5096605700     0.0000260800     0.0000393400     0.0000011400
  8      2.0904863790     7.1319139560     8.4643440490     0.0000445300    -0.0000124100     0.0000420300
  8      1.3184037160     7.1319139560     1.7845178620    -0.0000445300    -0.0000124100    -0.0000420300
  8      3.9750799700     6.8288848880     1.7736603530    -0.0001050200     0.0000073800    -0.0000790200
  8     -0.5661900860     6.8288848880     8.4752014030     0.0001050200     0.0000073800     0.0000790200
  8      2.3734463200     4.7017729920     1.7222663480    -0.0000617200    -0.0000447900     0.0000485000
  8      1.0354433590     4.7017729920     8.5265952550     0.0000617200    -0.0000447900    -0.0000485000
  8     -0.8545285720     2.5403195840     8.5606368130     0.0000268300     0.0000357300    -0.0000797400
  8      4.2634186670     2.5403195840     1.6882250980    -0.0000268300     0.0000357300     0.0000797400
  8     -0.0332121440     4.7407858750     4.0332889390    -0.0000790400     0.0000525100    -0.0001199900
  8      3.4421018910     4.7407858750     6.2155731250     0.0000790400     0.0000525100     0.0001199900
  8      2.6087520420     9.2621231360     4.0924923040    -0.0001643100    -0.0000357500     0.0000052900
  8      0.8001382360     9.2621231360     6.1563694520     0.0001643100    -0.0000357500    -0.0000052900
  1     -0.0248394670     4.5626643340     3.0837414350    -0.0000502800    -0.0000058300    -0.0000706600
  1      3.4337295700     4.5626643340     7.1651206290     0.0000502800    -0.0000058300     0.0000706600
  1      2.5764242020     0.1239351350     3.1350307430    -0.0000216900    -0.0000270200    -0.0000178300
  1      0.8324657620     0.1239351350     7.1138310140     0.0000216900    -0.0000270200     0.0000178300
 26     -0.9596482350     3.1091328760     5.1244308730     0.0000000000     0.0000712300     0.0000000000
 CONVCOORD
          44           1
 19      0.0000000000     4.5442399600     0.0000000000
 19      2.6640931540     0.0519079310     0.0000000000
 12     -0.9596482350     0.0564597940     5.1244308730
 12     -0.9596482350     6.1825034410     5.1244308730
 12      1.7044449030     4.5953414500     5.1244308730
 12      1.7044449030     7.7421147780     5.1244308730
 12      1.7044449030     1.5797671480     5.1244308730
 14      0.0377695910     1.5122554400     2.3077273520
 14      3.3711201990     1.5122554400     7.9411347120
 14      3.5145475880     7.7301013450     7.8644042010
 14     -0.1056575440     7.7301013450     2.3844575560
 14      2.5581467660     6.1770617380     2.3697041630
 14      0.8507430380     6.1770617380     7.8791575930
 13      0.7045724960     3.0644374820     7.9109121950
 13      2.7043178120     3.0644374820     2.3379494080
  8     -0.0169421940     1.4614452250     3.9366710940
  8      3.4258321170     1.4614452250     6.3121912770
  8      3.4949232880     7.7334553060     6.2438000160
  8     -0.0860332250     7.7334553060     4.0050620380
  8      2.5866003430     6.2066922020     3.9981185210
  8      0.8222892510     6.2066922020     6.2507435330
  8      0.7679358200     3.0880369200     6.1639461230
  8      2.6409542540     3.0880369200     4.0849150190
  8      1.5141648400     1.8996487500     1.7310586910
  8      1.8947252390     1.8996487500     8.5178024510
  8     -0.3062491770     9.2324747750     1.7392011760
  8      3.7151392550     9.2324747750     8.5096605700
  8      2.0904863790     7.1319139560     8.4643440490
  8      1.3184037160     7.1319139560     1.7845178620
  8      3.9750799700     6.8288848880     1.7736603530
  8     -0.5661900860     6.8288848880     8.4752014030
  8      2.3734463200     4.7017729920     1.7222663480
  8      1.0354433590     4.7017729920     8.5265952550
  8     -0.8545285720     2.5403195840     8.5606368130
  8      4.2634186670     2.5403195840     1.6882250980
  8     -0.0332121440     4.7407858750     4.0332889390
  8      3.4421018910     4.7407858750     6.2155731250
  8      2.6087520420     9.2621231360     4.0924923040
  8      0.8001382360     9.2621231360     6.1563694520
  1     -0.0248394670     4.5626643340     3.0837414350
  1      3.4337295700     4.5626643340     7.1651206290
  1      2.5764242020     0.1239351350     3.1350307430
  1      0.8324657620     0.1239351350     7.1138310140
 26     -0.9596482350     3.1091328760     5.1244308730
 RECIP-PRIMVEC
    0.1876811323   -0.0000000000    0.0351469752

    0.0000000000    0.1079184855   -0.0000000000

    0.0000000000    0.0000000000    0.0975717774

 RECIP-CONVVEC
    0.1876811323   -0.0000000000    0.0351469752

    0.0000000000    0.1079184855   -0.0000000000

    0.0000000000    0.0000000000    0.0975717774

 WIGNER-SEITZ-PRIMCELL
           4
 -0.2664093E+01  0.4633127E+01 -0.4805242E+01  -0.3156108E+00  0.1845835E-16 -0.9488887E+00
 -0.7447919E+00  0.4633127E+01 -0.5443623E+01  -0.3156108E+00  0.1845835E-16 -0.9488887E+00
 -0.7447919E+00 -0.4633127E+01 -0.5443623E+01  -0.3156108E+00  0.1845835E-16 -0.9488887E+00
 -0.2664093E+01 -0.4633127E+01 -0.4805242E+01  -0.3156108E+00  0.1845835E-16 -0.9488887E+00
           4
 -0.2664093E+01  0.4633127E+01 -0.4805242E+01  -0.1000000E+01 -0.0000000E+00 -0.0000000E+00
 -0.2664093E+01 -0.4633127E+01 -0.4805242E+01  -0.1000000E+01 -0.0000000E+00 -0.0000000E+00
 -0.2664093E+01 -0.4633127E+01  0.4805242E+01  -0.1000000E+01 -0.0000000E+00 -0.0000000E+00
 -0.2664093E+01  0.4633127E+01  0.4805242E+01  -0.1000000E+01 -0.0000000E+00 -0.0000000E+00
           6
  0.2664093E+01 -0.4633127E+01  0.4805242E+01  -0.0000000E+00 -0.1000000E+01  0.0000000E+00
  0.7447919E+00 -0.4633127E+01  0.5443623E+01  -0.0000000E+00 -0.1000000E+01  0.0000000E+00
 -0.2664093E+01 -0.4633127E+01  0.4805242E+01  -0.0000000E+00 -0.1000000E+01  0.0000000E+00
 -0.2664093E+01 -0.4633127E+01 -0.4805242E+01  -0.0000000E+00 -0.1000000E+01  0.0000000E+00
 -0.7447919E+00 -0.4633127E+01 -0.5443623E+01  -0.0000000E+00 -0.1000000E+01  0.0000000E+00
  0.2664093E+01 -0.4633127E+01 -0.4805242E+01  -0.0000000E+00 -0.1000000E+01  0.0000000E+00
           4
  0.2664093E+01  0.4633127E+01 -0.4805242E+01   0.1840698E+00 -0.1105500E-15 -0.9829132E+00
  0.2664093E+01 -0.4633127E+01 -0.4805242E+01   0.1840698E+00 -0.1105500E-15 -0.9829132E+00
 -0.7447919E+00 -0.4633127E+01 -0.5443623E+01   0.1840698E+00 -0.1105500E-15 -0.9829132E+00
 -0.7447919E+00  0.4633127E+01 -0.5443623E+01   0.1840698E+00 -0.1105500E-15 -0.9829132E+00
           4
 -0.2664093E+01  0.4633127E+01  0.4805242E+01  -0.1840698E+00 -0.0000000E+00  0.9829132E+00
 -0.2664093E+01 -0.4633127E+01  0.4805242E+01  -0.1840698E+00 -0.0000000E+00  0.9829132E+00
  0.7447919E+00 -0.4633127E+01  0.5443623E+01  -0.1840698E+00 -0.0000000E+00  0.9829132E+00
  0.7447919E+00  0.4633127E+01  0.5443623E+01  -0.1840698E+00 -0.0000000E+00  0.9829132E+00
           6
  0.2664093E+01  0.4633127E+01 -0.4805242E+01   0.0000000E+00  0.1000000E+01  0.5222412E-15
 -0.7447919E+00  0.4633127E+01 -0.5443623E+01   0.0000000E+00  0.1000000E+01  0.5222412E-15
 -0.2664093E+01  0.4633127E+01 -0.4805242E+01   0.0000000E+00  0.1000000E+01  0.5222412E-15
 -0.2664093E+01  0.4633127E+01  0.4805242E+01   0.0000000E+00  0.1000000E+01  0.5222412E-15
  0.7447919E+00  0.4633127E+01  0.5443623E+01   0.0000000E+00  0.1000000E+01  0.5222412E-15
  0.2664093E+01  0.4633127E+01  0.4805242E+01   0.0000000E+00  0.1000000E+01  0.5222412E-15
           4
  0.2664093E+01  0.4633127E+01  0.4805242E+01   0.1000000E+01  0.0000000E+00  0.0000000E+00
  0.2664093E+01 -0.4633127E+01  0.4805242E+01   0.1000000E+01  0.0000000E+00  0.0000000E+00
  0.2664093E+01 -0.4633127E+01 -0.4805242E+01   0.1000000E+01  0.0000000E+00  0.0000000E+00
  0.2664093E+01  0.4633127E+01 -0.4805242E+01   0.1000000E+01  0.0000000E+00  0.0000000E+00
           4
  0.7447919E+00 -0.4633127E+01  0.5443623E+01   0.3156108E+00 -0.2023844E-15  0.9488887E+00
  0.2664093E+01 -0.4633127E+01  0.4805242E+01   0.3156108E+00 -0.2023844E-15  0.9488887E+00
  0.2664093E+01  0.4633127E+01  0.4805242E+01   0.3156108E+00 -0.2023844E-15  0.9488887E+00
  0.7447919E+00  0.4633127E+01  0.5443623E+01   0.3156108E+00 -0.2023844E-15  0.9488887E+00
 WIGNER-SEITZ-PRIMCELL_END
 WIGNER-SEITZ-CONVCELL
           4
 -0.2664093E+01  0.4633127E+01 -0.4805242E+01  -0.3156108E+00  0.1845835E-16 -0.9488887E+00
 -0.7447919E+00  0.4633127E+01 -0.5443623E+01  -0.3156108E+00  0.1845835E-16 -0.9488887E+00
 -0.7447919E+00 -0.4633127E+01 -0.5443623E+01  -0.3156108E+00  0.1845835E-16 -0.9488887E+00
 -0.2664093E+01 -0.4633127E+01 -0.4805242E+01  -0.3156108E+00  0.1845835E-16 -0.9488887E+00
           4
 -0.2664093E+01  0.4633127E+01 -0.4805242E+01  -0.1000000E+01 -0.0000000E+00 -0.0000000E+00
 -0.2664093E+01 -0.4633127E+01 -0.4805242E+01  -0.1000000E+01 -0.0000000E+00 -0.0000000E+00
 -0.2664093E+01 -0.4633127E+01  0.4805242E+01  -0.1000000E+01 -0.0000000E+00 -0.0000000E+00
 -0.2664093E+01  0.4633127E+01  0.4805242E+01  -0.1000000E+01 -0.0000000E+00 -0.0000000E+00
           6
  0.2664093E+01 -0.4633127E+01  0.4805242E+01  -0.0000000E+00 -0.1000000E+01  0.0000000E+00
  0.7447919E+00 -0.4633127E+01  0.5443623E+01  -0.0000000E+00 -0.1000000E+01  0.0000000E+00
 -0.2664093E+01 -0.4633127E+01  0.4805242E+01  -0.0000000E+00 -0.1000000E+01  0.0000000E+00
 -0.2664093E+01 -0.4633127E+01 -0.4805242E+01  -0.0000000E+00 -0.1000000E+01  0.0000000E+00
 -0.7447919E+00 -0.4633127E+01 -0.5443623E+01  -0.0000000E+00 -0.1000000E+01  0.0000000E+00
  0.2664093E+01 -0.4633127E+01 -0.4805242E+01  -0.0000000E+00 -0.1000000E+01  0.0000000E+00
           4
  0.2664093E+01  0.4633127E+01 -0.4805242E+01   0.1840698E+00 -0.1105500E-15 -0.9829132E+00
  0.2664093E+01 -0.4633127E+01 -0.4805242E+01   0.1840698E+00 -0.1105500E-15 -0.9829132E+00
 -0.7447919E+00 -0.4633127E+01 -0.5443623E+01   0.1840698E+00 -0.1105500E-15 -0.9829132E+00
 -0.7447919E+00  0.4633127E+01 -0.5443623E+01   0.1840698E+00 -0.1105500E-15 -0.9829132E+00
           4
 -0.2664093E+01  0.4633127E+01  0.4805242E+01  -0.1840698E+00 -0.0000000E+00  0.9829132E+00
 -0.2664093E+01 -0.4633127E+01  0.4805242E+01  -0.1840698E+00 -0.0000000E+00  0.9829132E+00
  0.7447919E+00 -0.4633127E+01  0.5443623E+01  -0.1840698E+00 -0.0000000E+00  0.9829132E+00
  0.7447919E+00  0.4633127E+01  0.5443623E+01  -0.1840698E+00 -0.0000000E+00  0.9829132E+00
           6
  0.2664093E+01  0.4633127E+01 -0.4805242E+01   0.0000000E+00  0.1000000E+01  0.5222412E-15
 -0.7447919E+00  0.4633127E+01 -0.5443623E+01   0.0000000E+00  0.1000000E+01  0.5222412E-15
 -0.2664093E+01  0.4633127E+01 -0.4805242E+01   0.0000000E+00  0.1000000E+01  0.5222412E-15
 -0.2664093E+01  0.4633127E+01  0.4805242E+01   0.0000000E+00  0.1000000E+01  0.5222412E-15
  0.7447919E+00  0.4633127E+01  0.5443623E+01   0.0000000E+00  0.1000000E+01  0.5222412E-15
  0.2664093E+01  0.4633127E+01  0.4805242E+01   0.0000000E+00  0.1000000E+01  0.5222412E-15
           4
  0.2664093E+01  0.4633127E+01  0.4805242E+01   0.1000000E+01  0.0000000E+00  0.0000000E+00
  0.2664093E+01 -0.4633127E+01  0.4805242E+01   0.1000000E+01  0.0000000E+00  0.0000000E+00
  0.2664093E+01 -0.4633127E+01 -0.4805242E+01   0.1000000E+01  0.0000000E+00  0.0000000E+00
  0.2664093E+01  0.4633127E+01 -0.4805242E+01   0.1000000E+01  0.0000000E+00  0.0000000E+00
           4
  0.7447919E+00 -0.4633127E+01  0.5443623E+01   0.3156108E+00 -0.2023844E-15  0.9488887E+00
  0.2664093E+01 -0.4633127E+01  0.4805242E+01   0.3156108E+00 -0.2023844E-15  0.9488887E+00
  0.2664093E+01  0.4633127E+01  0.4805242E+01   0.3156108E+00 -0.2023844E-15  0.9488887E+00
  0.7447919E+00  0.4633127E+01  0.5443623E+01   0.3156108E+00 -0.2023844E-15  0.9488887E+00
 WIGNER-SEITZ-CONVCELL_END
 BRILLOUIN-ZONE-PRIMCELL
           4
  0.9968570E-01 -0.5395924E-01 -0.1363891E-01   0.9488887E+00  0.0000000E+00 -0.3156108E+00
  0.8799543E-01 -0.5395924E-01 -0.4878589E-01   0.9488887E+00  0.0000000E+00 -0.3156108E+00
  0.8799543E-01  0.5395924E-01 -0.4878589E-01   0.9488887E+00  0.0000000E+00 -0.3156108E+00
  0.9968570E-01  0.5395924E-01 -0.1363891E-01   0.9488887E+00  0.0000000E+00 -0.3156108E+00
           4
 -0.8799543E-01  0.5395924E-01 -0.4878589E-01  -0.4566824E-16 -0.5568903E-16 -0.1000000E+01
  0.8799543E-01  0.5395924E-01 -0.4878589E-01  -0.4566824E-16 -0.5568903E-16 -0.1000000E+01
  0.8799543E-01 -0.5395924E-01 -0.4878589E-01  -0.4566824E-16 -0.5568903E-16 -0.1000000E+01
 -0.8799543E-01 -0.5395924E-01 -0.4878589E-01  -0.4566824E-16 -0.5568903E-16 -0.1000000E+01
           6
  0.8799543E-01 -0.5395924E-01  0.4878589E-01   0.0000000E+00 -0.1000000E+01 -0.5608958E-15
 -0.8799543E-01 -0.5395924E-01  0.4878589E-01   0.0000000E+00 -0.1000000E+01 -0.5608958E-15
 -0.9968570E-01 -0.5395924E-01  0.1363891E-01   0.0000000E+00 -0.1000000E+01 -0.5608958E-15
 -0.8799543E-01 -0.5395924E-01 -0.4878589E-01   0.0000000E+00 -0.1000000E+01 -0.5608958E-15
  0.8799543E-01 -0.5395924E-01 -0.4878589E-01   0.0000000E+00 -0.1000000E+01 -0.5608958E-15
  0.9968570E-01 -0.5395924E-01 -0.1363891E-01   0.0000000E+00 -0.1000000E+01 -0.5608958E-15
           4
  0.8799543E-01  0.5395924E-01  0.4878589E-01   0.9829132E+00  0.0000000E+00  0.1840698E+00
  0.8799543E-01 -0.5395924E-01  0.4878589E-01   0.9829132E+00  0.0000000E+00  0.1840698E+00
  0.9968570E-01 -0.5395924E-01 -0.1363891E-01   0.9829132E+00  0.0000000E+00  0.1840698E+00
  0.9968570E-01  0.5395924E-01 -0.1363891E-01   0.9829132E+00  0.0000000E+00  0.1840698E+00
           4
 -0.8799543E-01  0.5395924E-01 -0.4878589E-01  -0.9829132E+00  0.1265501E-15 -0.1840698E+00
 -0.8799543E-01 -0.5395924E-01 -0.4878589E-01  -0.9829132E+00  0.1265501E-15 -0.1840698E+00
 -0.9968570E-01 -0.5395924E-01  0.1363891E-01  -0.9829132E+00  0.1265501E-15 -0.1840698E+00
 -0.9968570E-01  0.5395924E-01  0.1363891E-01  -0.9829132E+00  0.1265501E-15 -0.1840698E+00
           6
  0.9968570E-01  0.5395924E-01 -0.1363891E-01  -0.0000000E+00  0.1000000E+01 -0.2804479E-15
  0.8799543E-01  0.5395924E-01 -0.4878589E-01  -0.0000000E+00  0.1000000E+01 -0.2804479E-15
 -0.8799543E-01  0.5395924E-01 -0.4878589E-01  -0.0000000E+00  0.1000000E+01 -0.2804479E-15
 -0.9968570E-01  0.5395924E-01  0.1363891E-01  -0.0000000E+00  0.1000000E+01 -0.2804479E-15
 -0.8799543E-01  0.5395924E-01  0.4878589E-01  -0.0000000E+00  0.1000000E+01 -0.2804479E-15
  0.8799543E-01  0.5395924E-01  0.4878589E-01  -0.0000000E+00  0.1000000E+01 -0.2804479E-15
           4
  0.8799543E-01 -0.5395924E-01  0.4878589E-01  -0.0000000E+00 -0.0000000E+00  0.1000000E+01
  0.8799543E-01  0.5395924E-01  0.4878589E-01  -0.0000000E+00 -0.0000000E+00  0.1000000E+01
 -0.8799543E-01  0.5395924E-01  0.4878589E-01  -0.0000000E+00 -0.0000000E+00  0.1000000E+01
 -0.8799543E-01 -0.5395924E-01  0.4878589E-01  -0.0000000E+00 -0.0000000E+00  0.1000000E+01
           4
 -0.8799543E-01  0.5395924E-01  0.4878589E-01  -0.9488887E+00 -0.2441093E-15  0.3156108E+00
 -0.9968570E-01  0.5395924E-01  0.1363891E-01  -0.9488887E+00 -0.2441093E-15  0.3156108E+00
 -0.9968570E-01 -0.5395924E-01  0.1363891E-01  -0.9488887E+00 -0.2441093E-15  0.3156108E+00
 -0.8799543E-01 -0.5395924E-01  0.4878589E-01  -0.9488887E+00 -0.2441093E-15  0.3156108E+00
 BRILLOUIN-ZONE-PRIMCELL_END
 BRILLOUIN-ZONE-CONVCELL
           4
  0.9968570E-01 -0.5395924E-01 -0.1363891E-01   0.9488887E+00  0.0000000E+00 -0.3156108E+00
  0.8799543E-01 -0.5395924E-01 -0.4878589E-01   0.9488887E+00  0.0000000E+00 -0.3156108E+00
  0.8799543E-01  0.5395924E-01 -0.4878589E-01   0.9488887E+00  0.0000000E+00 -0.3156108E+00
  0.9968570E-01  0.5395924E-01 -0.1363891E-01   0.9488887E+00  0.0000000E+00 -0.3156108E+00
           4
 -0.8799543E-01  0.5395924E-01 -0.4878589E-01  -0.4566824E-16 -0.5568903E-16 -0.1000000E+01
  0.8799543E-01  0.5395924E-01 -0.4878589E-01  -0.4566824E-16 -0.5568903E-16 -0.1000000E+01
  0.8799543E-01 -0.5395924E-01 -0.4878589E-01  -0.4566824E-16 -0.5568903E-16 -0.1000000E+01
 -0.8799543E-01 -0.5395924E-01 -0.4878589E-01  -0.4566824E-16 -0.5568903E-16 -0.1000000E+01
           6
  0.8799543E-01 -0.5395924E-01  0.4878589E-01   0.0000000E+00 -0.1000000E+01 -0.5608958E-15
 -0.8799543E-01 -0.5395924E-01  0.4878589E-01   0.0000000E+00 -0.1000000E+01 -0.5608958E-15
 -0.9968570E-01 -0.5395924E-01  0.1363891E-01   0.0000000E+00 -0.1000000E+01 -0.5608958E-15
 -0.8799543E-01 -0.5395924E-01 -0.4878589E-01   0.0000000E+00 -0.1000000E+01 -0.5608958E-15
  0.8799543E-01 -0.5395924E-01 -0.4878589E-01   0.0000000E+00 -0.1000000E+01 -0.5608958E-15
  0.9968570E-01 -0.5395924E-01 -0.1363891E-01   0.0000000E+00 -0.1000000E+01 -0.5608958E-15
           4
  0.8799543E-01  0.5395924E-01  0.4878589E-01   0.9829132E+00  0.0000000E+00  0.1840698E+00
  0.8799543E-01 -0.5395924E-01  0.4878589E-01   0.9829132E+00  0.0000000E+00  0.1840698E+00
  0.9968570E-01 -0.5395924E-01 -0.1363891E-01   0.9829132E+00  0.0000000E+00  0.1840698E+00
  0.9968570E-01  0.5395924E-01 -0.1363891E-01   0.9829132E+00  0.0000000E+00  0.1840698E+00
           4
 -0.8799543E-01  0.5395924E-01 -0.4878589E-01  -0.9829132E+00  0.1265501E-15 -0.1840698E+00
 -0.8799543E-01 -0.5395924E-01 -0.4878589E-01  -0.9829132E+00  0.1265501E-15 -0.1840698E+00
 -0.9968570E-01 -0.5395924E-01  0.1363891E-01  -0.9829132E+00  0.1265501E-15 -0.1840698E+00
 -0.9968570E-01  0.5395924E-01  0.1363891E-01  -0.9829132E+00  0.1265501E-15 -0.1840698E+00
           6
  0.9968570E-01  0.5395924E-01 -0.1363891E-01  -0.0000000E+00  0.1000000E+01 -0.2804479E-15
  0.8799543E-01  0.5395924E-01 -0.4878589E-01  -0.0000000E+00  0.1000000E+01 -0.2804479E-15
 -0.8799543E-01  0.5395924E-01 -0.4878589E-01  -0.0000000E+00  0.1000000E+01 -0.2804479E-15
 -0.9968570E-01  0.5395924E-01  0.1363891E-01  -0.0000000E+00  0.1000000E+01 -0.2804479E-15
 -0.8799543E-01  0.5395924E-01  0.4878589E-01  -0.0000000E+00  0.1000000E+01 -0.2804479E-15
  0.8799543E-01  0.5395924E-01  0.4878589E-01  -0.0000000E+00  0.1000000E+01 -0.2804479E-15
           4
  0.8799543E-01 -0.5395924E-01  0.4878589E-01  -0.0000000E+00 -0.0000000E+00  0.1000000E+01
  0.8799543E-01  0.5395924E-01  0.4878589E-01  -0.0000000E+00 -0.0000000E+00  0.1000000E+01
 -0.8799543E-01  0.5395924E-01  0.4878589E-01  -0.0000000E+00 -0.0000000E+00  0.1000000E+01
 -0.8799543E-01 -0.5395924E-01  0.4878589E-01  -0.0000000E+00 -0.0000000E+00  0.1000000E+01
           4
 -0.8799543E-01  0.5395924E-01  0.4878589E-01  -0.9488887E+00 -0.2441093E-15  0.3156108E+00
 -0.9968570E-01  0.5395924E-01  0.1363891E-01  -0.9488887E+00 -0.2441093E-15  0.3156108E+00
 -0.9968570E-01 -0.5395924E-01  0.1363891E-01  -0.9488887E+00 -0.2441093E-15  0.3156108E+00
 -0.8799543E-01 -0.5395924E-01  0.4878589E-01  -0.9488887E+00 -0.2441093E-15  0.3156108E+00
 BRILLOUIN-ZONE-CONVCELL_END
 ATOMS
   19    0.0000000000    4.5442399600    0.0000000000    0.0000000000   -0.0000263200    0.0000000000
   19    2.6640931540    0.0519079310    0.0000000000    0.0000000000   -0.0000539000    0.0000000000
   12   -0.9596482350    0.0564597940    5.1244308730    0.0000000000    0.0001743500    0.0000000000
   12   -0.9596482350    6.1825034410    5.1244308730    0.0000000000   -0.0000562300    0.0000000000
   12    1.7044449030    4.5953414500    5.1244308730    0.0000000000   -0.0001380700    0.0000000000
   12    1.7044449030    7.7421147780    5.1244308730    0.0000000000    0.0000006800    0.0000000000
   12    1.7044449030    1.5797671480    5.1244308730    0.0000000000    0.0000135400    0.0000000000
   14    0.0377695910    1.5122554400    2.3077273520    0.0000772800    0.0000710600   -0.0000361500
   14    3.3711201990    1.5122554400    7.9411347120   -0.0000772800    0.0000710600    0.0000361500
   14    3.5145475880    7.7301013450    7.8644042010    0.0000644900   -0.0000504500   -0.0000323400
   14   -0.1056575440    7.7301013450    2.3844575560   -0.0000644900   -0.0000504500    0.0000323400
   14    2.5581467660    6.1770617380    2.3697041630   -0.0000620600    0.0000127300    0.0000671000
   14    0.8507430380    6.1770617380    7.8791575930    0.0000620600    0.0000127300   -0.0000671000
   13    0.7045724960    3.0644374820    7.9109121950    0.0000023600    0.0000652100    0.0000585400
   13    2.7043178120    3.0644374820    2.3379494080   -0.0000023600    0.0000652100   -0.0000585400
    8   -0.0169421940    1.4614452250    3.9366710940    0.0000645400   -0.0001275700    0.0000047900
    8    3.4258321170    1.4614452250    6.3121912770   -0.0000645400   -0.0001275700   -0.0000047900
    8    3.4949232880    7.7334553060    6.2438000160    0.0000062700   -0.0000127800   -0.0000521200
    8   -0.0860332250    7.7334553060    4.0050620380   -0.0000062700   -0.0000127800    0.0000521200
    8    2.5866003430    6.2066922020    3.9981185210    0.0000322700   -0.0000054500    0.0000604900
    8    0.8222892510    6.2066922020    6.2507435330   -0.0000322700   -0.0000054500   -0.0000604900
    8    0.7679358200    3.0880369200    6.1639461230    0.0000613500    0.0000543200    0.0000753200
    8    2.6409542540    3.0880369200    4.0849150190   -0.0000613500    0.0000543200   -0.0000753200
    8    1.5141648400    1.8996487500    1.7310586910    0.0001104800   -0.0000088800    0.0000349400
    8    1.8947252390    1.8996487500    8.5178024510   -0.0001104800   -0.0000088800   -0.0000349400
    8   -0.3062491770    9.2324747750    1.7392011760   -0.0000260800    0.0000393400   -0.0000011400
    8    3.7151392550    9.2324747750    8.5096605700    0.0000260800    0.0000393400    0.0000011400
    8    2.0904863790    7.1319139560    8.4643440490    0.0000445300   -0.0000124100    0.0000420300
    8    1.3184037160    7.1319139560    1.7845178620   -0.0000445300   -0.0000124100   -0.0000420300
    8    3.9750799700    6.8288848880    1.7736603530   -0.0001050200    0.0000073800   -0.0000790200
    8   -0.5661900860    6.8288848880    8.4752014030    0.0001050200    0.0000073800    0.0000790200
    8    2.3734463200    4.7017729920    1.7222663480   -0.0000617200   -0.0000447900    0.0000485000
    8    1.0354433590    4.7017729920    8.5265952550    0.0000617200   -0.0000447900   -0.0000485000
    8   -0.8545285720    2.5403195840    8.5606368130    0.0000268300    0.0000357300   -0.0000797400
    8    4.2634186670    2.5403195840    1.6882250980   -0.0000268300    0.0000357300    0.0000797400
    8   -0.0332121440    4.7407858750    4.0332889390   -0.0000790400    0.0000525100   -0.0001199900
    8    3.4421018910    4.7407858750    6.2155731250    0.0000790400    0.0000525100    0.0001199900
    8    2.6087520420    9.2621231360    4.0924923040   -0.0001643100   -0.0000357500    0.0000052900
    8    0.8001382360    9.2621231360    6.1563694520    0.0001643100   -0.0000357500   -0.0000052900
    1   -0.0248394670    4.5626643340    3.0837414350   -0.0000502800   -0.0000058300   -0.0000706600
    1    3.4337295700    4.5626643340    7.1651206290    0.0000502800   -0.0000058300    0.0000706600
    1    2.5764242020    0.1239351350    3.1350307430   -0.0000216900   -0.0000270200   -0.0000178300
    1    0.8324657620    0.1239351350    7.1138310140    0.0000216900   -0.0000270200    0.0000178300
   26   -0.9596482350    3.1091328760    5.1244308730    0.0000000000    0.0000712300    0.0000000000
   19   -1.9193011480    4.5442399600   10.2488652590    0.0000000000   -0.0000263200    0.0000000000
   19    0.7447920060    0.0519079310   10.2488652590    0.0000000000   -0.0000539000    0.0000000000
   19    5.3281860980    4.5442399600    0.0000000000    0.0000000000   -0.0000263200    0.0000000000
   12    4.3685378630    0.0564597940    5.1244308730    0.0000000000    0.0001743500    0.0000000000
   12    4.3685378630    6.1825034410    5.1244308730    0.0000000000   -0.0000562300    0.0000000000
   26    4.3685378630    3.1091328760    5.1244308730    0.0000000000    0.0000712300    0.0000000000
   19    3.4088849500    4.5442399600   10.2488652590    0.0000000000   -0.0000263200    0.0000000000
 FRAMES
1      0.0000000000    0.0000000000    0.0000000000      5.3281860980    0.0000000000    0.0000000000
1      0.0000000000    0.0000000000    0.0000000000      0.0000000000    9.2662530960    0.0000000000
1      0.0000000000    0.0000000000    0.0000000000     -1.9193011480    0.0000000000   10.2488652590
1     -1.9193011480    0.0000000000   10.2488652590      3.4088849500    0.0000000000   10.2488652590
1     -1.9193011480    0.0000000000   10.2488652590     -1.9193011480    9.2662530960   10.2488652590
1      0.0000000000    9.2662530960    0.0000000000      5.3281860980    9.2662530960    0.0000000000
1      0.0000000000    9.2662530960    0.0000000000     -1.9193011480    9.2662530960   10.2488652590
1     -1.9193011480    9.2662530960   10.2488652590      3.4088849500    9.2662530960   10.2488652590
1      5.3281860980    0.0000000000    0.0000000000      5.3281860980    9.2662530960    0.0000000000
1      5.3281860980    0.0000000000    0.0000000000      3.4088849500    0.0000000000   10.2488652590
1      3.4088849500    0.0000000000   10.2488652590      3.4088849500    9.2662530960   10.2488652590
1      5.3281860980    9.2662530960    0.0000000000      3.4088849500    9.2662530960   10.2488652590
