 INFO
nunit      1    1    1
unit   cell
celltype   primcell
shape   parapipedal
 END_INFO
 DIM-GROUP
           3           1
 PRIMVEC
    5.2938447440    0.0000000000    0.0000000000
    0.0000000000    9.2749441840    0.0000000000
   -1.7821828330    0.0000000000   10.1558906840
 CONVVEC
    5.2938447440    0.0000000000    0.0000000000
    0.0000000000    9.2749441840    0.0000000000
   -1.7821828330    0.0000000000   10.1558906840
 PRIMCOORD
          43           1
 19      0.0000000000     4.6767038670     0.0000000000     0.0000000000    -0.0004476000     0.0000000000
 19      2.6469235060     9.1948975750     0.0000000000     0.0000000000     0.0005941400     0.0000000000
 12     -0.8910902870     6.0715928960     5.0779451520     0.0000000000    -0.0001496100     0.0000000000
 12      1.7558332190     4.5738166080     5.0779451520     0.0000000000    -0.0001753900     0.0000000000
 12      1.7558332190     7.7062069530     5.0779451520     0.0000000000    -0.0000561500     0.0000000000
 12      1.7558332190     1.7991163380     5.0779451520     0.0000000000    -0.0001220800     0.0000000000
 14      0.0809954200     1.4848086560     2.1887059070     0.0002328400     0.0000540800    -0.0000503500
 14      3.4306707260     1.4848086560     7.9671847020    -0.0002328400     0.0000540800     0.0000503500
 14      3.6124951460     7.7281354700     7.8196781360    -0.0001060100     0.0001028700     0.0004001000
 14     -0.1008286590     7.7281354700     2.3362120170     0.0001060100     0.0001028700    -0.0004001000
 14      2.5583401800     6.1577861600     2.3330150350    -0.0000057100     0.0001563500    -0.0001401600
 14      0.9533262850     6.1577861600     7.8228751170     0.0000057100     0.0001563500     0.0001401600
 13      0.7754252380     3.0998119280     7.8527141280    -0.0001142100     0.0002310800    -0.0000548100
 13      2.7362411470     3.0998119280     2.3031764810     0.0001142100     0.0002310800     0.0000548100
  8     -0.0270391920     1.3325156530     3.8594097530     0.0003590800     0.0002911800     0.0001766900
  8      3.5387053810     1.3325156530     6.2964808560    -0.0003590800     0.0002911800    -0.0001766900
  8      3.5912272350     7.8642463340     6.1716976490    -0.0002963900    -0.0000358100     0.0005869100
  8     -0.0795608880     7.8642463340     3.9841929600     0.0002963900    -0.0000358100    -0.0005869100
  8      2.6249782560     6.2729336600     3.9528399030    -0.0000097700    -0.0003797200    -0.0001533400
  8      0.8866881830     6.2729336600     6.2030504010     0.0000097700    -0.0003797200     0.0001533400
  8      0.8541209990     3.1194339590     6.1481252480    -0.0004877600     0.0006895800    -0.0001144500
  8      2.6575455980     3.1194339590     4.0077650570     0.0004877600     0.0006895800     0.0001144500
  8      1.5940980640     1.8272636780     1.7341720870     0.0000462900    -0.0001474200    -0.0001719400
  8      1.9175686400     1.8272636780     8.4217176090    -0.0000462900    -0.0001474200     0.0001719400
  8     -0.2639954560     9.2227044130     1.6524074960    -0.0000872400     0.0001775600     0.0003728600
  8      3.7756619480     9.2227044130     8.5034825040     0.0000872400     0.0001775600    -0.0003728600
  8      2.2032642650     7.1171491670     8.3875581730    -0.0000446100     0.0000099400    -0.0003388300
  8      1.3084023320     7.1171491670     1.7683321320     0.0000446100     0.0000099400     0.0003388300
  8      3.9208158770     6.9101678040     1.7230007380     0.0002368300    -0.0002211900     0.0004931000
  8     -0.4091495180     6.9101678040     8.4328895660    -0.0002368300    -0.0002211900    -0.0004931000
  8      2.4653984830     4.7144999020     1.6224308030    -0.0002584600     0.0001960100     0.0002581600
  8      1.0462676640     4.7144999020     8.5334593500     0.0002584600     0.0001960100    -0.0002581600
  8     -0.7702396340     2.5161698290     8.5261019200     0.0001762300    -0.0001747000     0.0003294500
  8      4.2819061240     2.5161698290     1.6297880900    -0.0001762300    -0.0001747000    -0.0003294500
  8      0.1146772190     4.9149535800     3.8344357050     0.0000863200    -0.0002029100    -0.0000477200
  8      3.3969893250     4.9149535800     6.3214549040    -0.0000863200    -0.0002029100     0.0000477200
  8      2.6903811500     0.0570535650     4.0775572680    -0.0009225400    -0.0001941600    -0.0003889300
  8      0.8212853400     0.0570535650     6.0783327410     0.0009225400    -0.0001941600     0.0003889300
  1     -0.4072881770     4.0921634510     3.7972531470     0.0000256400    -0.0001443500     0.0001547900
  1      3.9189547850     4.0921634510     6.3586368530    -0.0000256400    -0.0001443500    -0.0001547900
  1      2.6207569240     0.2890104280     3.1327319250     0.0002435200    -0.0003345500    -0.0003447400
  1      0.8909096730     0.2890104280     7.0231583790    -0.0002435200    -0.0003345500     0.0003447400
 22     -0.8910902870     0.2200471980     5.0779451520     0.0000000000     0.0002090100     0.0000000000
 CONVCOORD
          43           1
 19      0.0000000000     4.6767038670     0.0000000000
 19      2.6469235060     9.1948975750     0.0000000000
 12     -0.8910902870     6.0715928960     5.0779451520
 12      1.7558332190     4.5738166080     5.0779451520
 12      1.7558332190     7.7062069530     5.0779451520
 12      1.7558332190     1.7991163380     5.0779451520
 14      0.0809954200     1.4848086560     2.1887059070
 14      3.4306707260     1.4848086560     7.9671847020
 14      3.6124951460     7.7281354700     7.8196781360
 14     -0.1008286590     7.7281354700     2.3362120170
 14      2.5583401800     6.1577861600     2.3330150350
 14      0.9533262850     6.1577861600     7.8228751170
 13      0.7754252380     3.0998119280     7.8527141280
 13      2.7362411470     3.0998119280     2.3031764810
  8     -0.0270391920     1.3325156530     3.8594097530
  8      3.5387053810     1.3325156530     6.2964808560
  8      3.5912272350     7.8642463340     6.1716976490
  8     -0.0795608880     7.8642463340     3.9841929600
  8      2.6249782560     6.2729336600     3.9528399030
  8      0.8866881830     6.2729336600     6.2030504010
  8      0.8541209990     3.1194339590     6.1481252480
  8      2.6575455980     3.1194339590     4.0077650570
  8      1.5940980640     1.8272636780     1.7341720870
  8      1.9175686400     1.8272636780     8.4217176090
  8     -0.2639954560     9.2227044130     1.6524074960
  8      3.7756619480     9.2227044130     8.5034825040
  8      2.2032642650     7.1171491670     8.3875581730
  8      1.3084023320     7.1171491670     1.7683321320
  8      3.9208158770     6.9101678040     1.7230007380
  8     -0.4091495180     6.9101678040     8.4328895660
  8      2.4653984830     4.7144999020     1.6224308030
  8      1.0462676640     4.7144999020     8.5334593500
  8     -0.7702396340     2.5161698290     8.5261019200
  8      4.2819061240     2.5161698290     1.6297880900
  8      0.1146772190     4.9149535800     3.8344357050
  8      3.3969893250     4.9149535800     6.3214549040
  8      2.6903811500     0.0570535650     4.0775572680
  8      0.8212853400     0.0570535650     6.0783327410
  1     -0.4072881770     4.0921634510     3.7972531470
  1      3.9189547850     4.0921634510     6.3586368530
  1      2.6207569240     0.2890104280     3.1327319250
  1      0.8909096730     0.2890104280     7.0231583790
 22     -0.8910902870     0.2200471980     5.0779451520
 RECIP-PRIMVEC
    0.1888986263   -0.0000000000    0.0331484357

    0.0000000000    0.1078173604   -0.0000000000

    0.0000000000    0.0000000000    0.0984650220

 RECIP-CONVVEC
    0.1888986263   -0.0000000000    0.0331484357

    0.0000000000    0.1078173604   -0.0000000000

    0.0000000000    0.0000000000    0.0984650220

 WIGNER-SEITZ-PRIMCELL
           4
 -0.2646922E+01 -0.4637472E+01 -0.4769827E+01  -0.3267915E+00  0.1015647E-15 -0.9450964E+00
 -0.2646922E+01  0.4637472E+01 -0.4769827E+01  -0.3267915E+00  0.1015647E-15 -0.9450964E+00
 -0.8647395E+00  0.4637472E+01 -0.5386063E+01  -0.3267915E+00  0.1015647E-15 -0.9450964E+00
 -0.8647395E+00 -0.4637472E+01 -0.5386063E+01  -0.3267915E+00  0.1015647E-15 -0.9450964E+00
           4
 -0.2646922E+01  0.4637472E+01 -0.4769827E+01  -0.1000000E+01  0.4788053E-16  0.8915721E-32
 -0.2646922E+01 -0.4637472E+01 -0.4769827E+01  -0.1000000E+01  0.4788053E-16  0.8915721E-32
 -0.2646922E+01 -0.4637472E+01  0.4769827E+01  -0.1000000E+01  0.4788053E-16  0.8915721E-32
 -0.2646922E+01  0.4637472E+01  0.4769827E+01  -0.1000000E+01  0.4788053E-16  0.8915721E-32
           6
  0.2646922E+01 -0.4637472E+01  0.4769827E+01   0.2418145E-30 -0.1000000E+01  0.2178071E-14
  0.8647395E+00 -0.4637472E+01  0.5386063E+01   0.2418145E-30 -0.1000000E+01  0.2178071E-14
 -0.2646922E+01 -0.4637472E+01  0.4769827E+01   0.2418145E-30 -0.1000000E+01  0.2178071E-14
 -0.2646922E+01 -0.4637472E+01 -0.4769827E+01   0.2418145E-30 -0.1000000E+01  0.2178071E-14
 -0.8647395E+00 -0.4637472E+01 -0.5386063E+01   0.2418145E-30 -0.1000000E+01  0.2178071E-14
  0.2646922E+01 -0.4637472E+01 -0.4769827E+01   0.2418145E-30 -0.1000000E+01  0.2178071E-14
           4
  0.2646922E+01  0.4637472E+01 -0.4769827E+01   0.1728416E+00  0.0000000E+00 -0.9849496E+00
  0.2646922E+01 -0.4637472E+01 -0.4769827E+01   0.1728416E+00  0.0000000E+00 -0.9849496E+00
 -0.8647395E+00 -0.4637472E+01 -0.5386063E+01   0.1728416E+00  0.0000000E+00 -0.9849496E+00
 -0.8647395E+00  0.4637472E+01 -0.5386063E+01   0.1728416E+00  0.0000000E+00 -0.9849496E+00
           4
  0.8647395E+00  0.4637472E+01  0.5386063E+01  -0.1728416E+00  0.3722831E-16  0.9849496E+00
 -0.2646922E+01  0.4637472E+01  0.4769827E+01  -0.1728416E+00  0.3722831E-16  0.9849496E+00
 -0.2646922E+01 -0.4637472E+01  0.4769827E+01  -0.1728416E+00  0.3722831E-16  0.9849496E+00
  0.8647395E+00 -0.4637472E+01  0.5386063E+01  -0.1728416E+00  0.3722831E-16  0.9849496E+00
           6
  0.2646922E+01  0.4637472E+01 -0.4769827E+01  -0.1677757E-15  0.1000000E+01 -0.0000000E+00
 -0.8647395E+00  0.4637472E+01 -0.5386063E+01  -0.1677757E-15  0.1000000E+01 -0.0000000E+00
 -0.2646922E+01  0.4637472E+01 -0.4769827E+01  -0.1677757E-15  0.1000000E+01 -0.0000000E+00
 -0.2646922E+01  0.4637472E+01  0.4769827E+01  -0.1677757E-15  0.1000000E+01 -0.0000000E+00
  0.8647395E+00  0.4637472E+01  0.5386063E+01  -0.1677757E-15  0.1000000E+01 -0.0000000E+00
  0.2646922E+01  0.4637472E+01  0.4769827E+01  -0.1677757E-15  0.1000000E+01 -0.0000000E+00
           4
  0.2646922E+01  0.4637472E+01  0.4769827E+01   0.1000000E+01 -0.4788053E-16 -0.4457860E-32
  0.2646922E+01 -0.4637472E+01  0.4769827E+01   0.1000000E+01 -0.4788053E-16 -0.4457860E-32
  0.2646922E+01 -0.4637472E+01 -0.4769827E+01   0.1000000E+01 -0.4788053E-16 -0.4457860E-32
  0.2646922E+01  0.4637472E+01 -0.4769827E+01   0.1000000E+01 -0.4788053E-16 -0.4457860E-32
           4
  0.2646922E+01 -0.4637472E+01  0.4769827E+01   0.3267915E+00  0.3046941E-15  0.9450964E+00
  0.2646922E+01  0.4637472E+01  0.4769827E+01   0.3267915E+00  0.3046941E-15  0.9450964E+00
  0.8647395E+00  0.4637472E+01  0.5386063E+01   0.3267915E+00  0.3046941E-15  0.9450964E+00
  0.8647395E+00 -0.4637472E+01  0.5386063E+01   0.3267915E+00  0.3046941E-15  0.9450964E+00
 WIGNER-SEITZ-PRIMCELL_END
 WIGNER-SEITZ-CONVCELL
           4
 -0.2646922E+01 -0.4637472E+01 -0.4769827E+01  -0.3267915E+00  0.1015647E-15 -0.9450964E+00
 -0.2646922E+01  0.4637472E+01 -0.4769827E+01  -0.3267915E+00  0.1015647E-15 -0.9450964E+00
 -0.8647395E+00  0.4637472E+01 -0.5386063E+01  -0.3267915E+00  0.1015647E-15 -0.9450964E+00
 -0.8647395E+00 -0.4637472E+01 -0.5386063E+01  -0.3267915E+00  0.1015647E-15 -0.9450964E+00
           4
 -0.2646922E+01  0.4637472E+01 -0.4769827E+01  -0.1000000E+01  0.4788053E-16  0.8915721E-32
 -0.2646922E+01 -0.4637472E+01 -0.4769827E+01  -0.1000000E+01  0.4788053E-16  0.8915721E-32
 -0.2646922E+01 -0.4637472E+01  0.4769827E+01  -0.1000000E+01  0.4788053E-16  0.8915721E-32
 -0.2646922E+01  0.4637472E+01  0.4769827E+01  -0.1000000E+01  0.4788053E-16  0.8915721E-32
           6
  0.2646922E+01 -0.4637472E+01  0.4769827E+01   0.2418145E-30 -0.1000000E+01  0.2178071E-14
  0.8647395E+00 -0.4637472E+01  0.5386063E+01   0.2418145E-30 -0.1000000E+01  0.2178071E-14
 -0.2646922E+01 -0.4637472E+01  0.4769827E+01   0.2418145E-30 -0.1000000E+01  0.2178071E-14
 -0.2646922E+01 -0.4637472E+01 -0.4769827E+01   0.2418145E-30 -0.1000000E+01  0.2178071E-14
 -0.8647395E+00 -0.4637472E+01 -0.5386063E+01   0.2418145E-30 -0.1000000E+01  0.2178071E-14
  0.2646922E+01 -0.4637472E+01 -0.4769827E+01   0.2418145E-30 -0.1000000E+01  0.2178071E-14
           4
  0.2646922E+01  0.4637472E+01 -0.4769827E+01   0.1728416E+00  0.0000000E+00 -0.9849496E+00
  0.2646922E+01 -0.4637472E+01 -0.4769827E+01   0.1728416E+00  0.0000000E+00 -0.9849496E+00
 -0.8647395E+00 -0.4637472E+01 -0.5386063E+01   0.1728416E+00  0.0000000E+00 -0.9849496E+00
 -0.8647395E+00  0.4637472E+01 -0.5386063E+01   0.1728416E+00  0.0000000E+00 -0.9849496E+00
           4
  0.8647395E+00  0.4637472E+01  0.5386063E+01  -0.1728416E+00  0.3722831E-16  0.9849496E+00
 -0.2646922E+01  0.4637472E+01  0.4769827E+01  -0.1728416E+00  0.3722831E-16  0.9849496E+00
 -0.2646922E+01 -0.4637472E+01  0.4769827E+01  -0.1728416E+00  0.3722831E-16  0.9849496E+00
  0.8647395E+00 -0.4637472E+01  0.5386063E+01  -0.1728416E+00  0.3722831E-16  0.9849496E+00
           6
  0.2646922E+01  0.4637472E+01 -0.4769827E+01  -0.1677757E-15  0.1000000E+01 -0.0000000E+00
 -0.8647395E+00  0.4637472E+01 -0.5386063E+01  -0.1677757E-15  0.1000000E+01 -0.0000000E+00
 -0.2646922E+01  0.4637472E+01 -0.4769827E+01  -0.1677757E-15  0.1000000E+01 -0.0000000E+00
 -0.2646922E+01  0.4637472E+01  0.4769827E+01  -0.1677757E-15  0.1000000E+01 -0.0000000E+00
  0.8647395E+00  0.4637472E+01  0.5386063E+01  -0.1677757E-15  0.1000000E+01 -0.0000000E+00
  0.2646922E+01  0.4637472E+01  0.4769827E+01  -0.1677757E-15  0.1000000E+01 -0.0000000E+00
           4
  0.2646922E+01  0.4637472E+01  0.4769827E+01   0.1000000E+01 -0.4788053E-16 -0.4457860E-32
  0.2646922E+01 -0.4637472E+01  0.4769827E+01   0.1000000E+01 -0.4788053E-16 -0.4457860E-32
  0.2646922E+01 -0.4637472E+01 -0.4769827E+01   0.1000000E+01 -0.4788053E-16 -0.4457860E-32
  0.2646922E+01  0.4637472E+01 -0.4769827E+01   0.1000000E+01 -0.4788053E-16 -0.4457860E-32
           4
  0.2646922E+01 -0.4637472E+01  0.4769827E+01   0.3267915E+00  0.3046941E-15  0.9450964E+00
  0.2646922E+01  0.4637472E+01  0.4769827E+01   0.3267915E+00  0.3046941E-15  0.9450964E+00
  0.8647395E+00  0.4637472E+01  0.5386063E+01   0.3267915E+00  0.3046941E-15  0.9450964E+00
  0.8647395E+00 -0.4637472E+01  0.5386063E+01   0.3267915E+00  0.3046941E-15  0.9450964E+00
 WIGNER-SEITZ-CONVCELL_END
 BRILLOUIN-ZONE-PRIMCELL
           4
  0.1001803E+00  0.5390868E-01 -0.1608408E-01   0.9450964E+00  0.5734092E-16 -0.3267915E+00
  0.1001803E+00 -0.5390868E-01 -0.1608408E-01   0.9450964E+00  0.5734092E-16 -0.3267915E+00
  0.8871835E-01 -0.5390868E-01 -0.4923251E-01   0.9450964E+00  0.5734092E-16 -0.3267915E+00
  0.8871835E-01  0.5390868E-01 -0.4923251E-01   0.9450964E+00  0.5734092E-16 -0.3267915E+00
           4
 -0.8871835E-01  0.5390868E-01 -0.4923251E-01  -0.4533860E-16  0.3571413E-16 -0.1000000E+01
  0.8871835E-01  0.5390868E-01 -0.4923251E-01  -0.4533860E-16  0.3571413E-16 -0.1000000E+01
  0.8871835E-01 -0.5390868E-01 -0.4923251E-01  -0.4533860E-16  0.3571413E-16 -0.1000000E+01
 -0.8871835E-01 -0.5390868E-01 -0.4923251E-01  -0.4533860E-16  0.3571413E-16 -0.1000000E+01
           6
  0.8871835E-01 -0.5390868E-01  0.4923251E-01  -0.0000000E+00 -0.1000000E+01 -0.2949333E-15
 -0.8871835E-01 -0.5390868E-01  0.4923251E-01  -0.0000000E+00 -0.1000000E+01 -0.2949333E-15
 -0.1001803E+00 -0.5390868E-01  0.1608408E-01  -0.0000000E+00 -0.1000000E+01 -0.2949333E-15
 -0.8871835E-01 -0.5390868E-01 -0.4923251E-01  -0.0000000E+00 -0.1000000E+01 -0.2949333E-15
  0.8871835E-01 -0.5390868E-01 -0.4923251E-01  -0.0000000E+00 -0.1000000E+01 -0.2949333E-15
  0.1001803E+00 -0.5390868E-01 -0.1608408E-01  -0.0000000E+00 -0.1000000E+01 -0.2949333E-15
           4
  0.8871835E-01  0.5390868E-01  0.4923251E-01   0.9849496E+00 -0.1061476E-15  0.1728416E+00
  0.8871835E-01 -0.5390868E-01  0.4923251E-01   0.9849496E+00 -0.1061476E-15  0.1728416E+00
  0.1001803E+00 -0.5390868E-01 -0.1608408E-01   0.9849496E+00 -0.1061476E-15  0.1728416E+00
  0.1001803E+00  0.5390868E-01 -0.1608408E-01   0.9849496E+00 -0.1061476E-15  0.1728416E+00
           4
 -0.8871835E-01  0.5390868E-01 -0.4923251E-01  -0.9849496E+00 -0.2426231E-15 -0.1728416E+00
 -0.8871835E-01 -0.5390868E-01 -0.4923251E-01  -0.9849496E+00 -0.2426231E-15 -0.1728416E+00
 -0.1001803E+00 -0.5390868E-01  0.1608408E-01  -0.9849496E+00 -0.2426231E-15 -0.1728416E+00
 -0.1001803E+00  0.5390868E-01  0.1608408E-01  -0.9849496E+00 -0.2426231E-15 -0.1728416E+00
           6
  0.1001803E+00  0.5390868E-01 -0.1608408E-01   0.0000000E+00  0.1000000E+01 -0.2949333E-15
  0.8871835E-01  0.5390868E-01 -0.4923251E-01   0.0000000E+00  0.1000000E+01 -0.2949333E-15
 -0.8871835E-01  0.5390868E-01 -0.4923251E-01   0.0000000E+00  0.1000000E+01 -0.2949333E-15
 -0.1001803E+00  0.5390868E-01  0.1608408E-01   0.0000000E+00  0.1000000E+01 -0.2949333E-15
 -0.8871835E-01  0.5390868E-01  0.4923251E-01   0.0000000E+00  0.1000000E+01 -0.2949333E-15
  0.8871835E-01  0.5390868E-01  0.4923251E-01   0.0000000E+00  0.1000000E+01 -0.2949333E-15
           4
  0.8871835E-01 -0.5390868E-01  0.4923251E-01  -0.0000000E+00 -0.0000000E+00  0.1000000E+01
  0.8871835E-01  0.5390868E-01  0.4923251E-01  -0.0000000E+00 -0.0000000E+00  0.1000000E+01
 -0.8871835E-01  0.5390868E-01  0.4923251E-01  -0.0000000E+00 -0.0000000E+00  0.1000000E+01
 -0.8871835E-01 -0.5390868E-01  0.4923251E-01  -0.0000000E+00 -0.0000000E+00  0.1000000E+01
           4
 -0.8871835E-01  0.5390868E-01  0.4923251E-01  -0.9450964E+00  0.8897943E-16  0.3267915E+00
 -0.1001803E+00  0.5390868E-01  0.1608408E-01  -0.9450964E+00  0.8897943E-16  0.3267915E+00
 -0.1001803E+00 -0.5390868E-01  0.1608408E-01  -0.9450964E+00  0.8897943E-16  0.3267915E+00
 -0.8871835E-01 -0.5390868E-01  0.4923251E-01  -0.9450964E+00  0.8897943E-16  0.3267915E+00
 BRILLOUIN-ZONE-PRIMCELL_END
 BRILLOUIN-ZONE-CONVCELL
           4
  0.1001803E+00  0.5390868E-01 -0.1608408E-01   0.9450964E+00  0.5734092E-16 -0.3267915E+00
  0.1001803E+00 -0.5390868E-01 -0.1608408E-01   0.9450964E+00  0.5734092E-16 -0.3267915E+00
  0.8871835E-01 -0.5390868E-01 -0.4923251E-01   0.9450964E+00  0.5734092E-16 -0.3267915E+00
  0.8871835E-01  0.5390868E-01 -0.4923251E-01   0.9450964E+00  0.5734092E-16 -0.3267915E+00
           4
 -0.8871835E-01  0.5390868E-01 -0.4923251E-01  -0.4533860E-16  0.3571413E-16 -0.1000000E+01
  0.8871835E-01  0.5390868E-01 -0.4923251E-01  -0.4533860E-16  0.3571413E-16 -0.1000000E+01
  0.8871835E-01 -0.5390868E-01 -0.4923251E-01  -0.4533860E-16  0.3571413E-16 -0.1000000E+01
 -0.8871835E-01 -0.5390868E-01 -0.4923251E-01  -0.4533860E-16  0.3571413E-16 -0.1000000E+01
           6
  0.8871835E-01 -0.5390868E-01  0.4923251E-01  -0.0000000E+00 -0.1000000E+01 -0.2949333E-15
 -0.8871835E-01 -0.5390868E-01  0.4923251E-01  -0.0000000E+00 -0.1000000E+01 -0.2949333E-15
 -0.1001803E+00 -0.5390868E-01  0.1608408E-01  -0.0000000E+00 -0.1000000E+01 -0.2949333E-15
 -0.8871835E-01 -0.5390868E-01 -0.4923251E-01  -0.0000000E+00 -0.1000000E+01 -0.2949333E-15
  0.8871835E-01 -0.5390868E-01 -0.4923251E-01  -0.0000000E+00 -0.1000000E+01 -0.2949333E-15
  0.1001803E+00 -0.5390868E-01 -0.1608408E-01  -0.0000000E+00 -0.1000000E+01 -0.2949333E-15
           4
  0.8871835E-01  0.5390868E-01  0.4923251E-01   0.9849496E+00 -0.1061476E-15  0.1728416E+00
  0.8871835E-01 -0.5390868E-01  0.4923251E-01   0.9849496E+00 -0.1061476E-15  0.1728416E+00
  0.1001803E+00 -0.5390868E-01 -0.1608408E-01   0.9849496E+00 -0.1061476E-15  0.1728416E+00
  0.1001803E+00  0.5390868E-01 -0.1608408E-01   0.9849496E+00 -0.1061476E-15  0.1728416E+00
           4
 -0.8871835E-01  0.5390868E-01 -0.4923251E-01  -0.9849496E+00 -0.2426231E-15 -0.1728416E+00
 -0.8871835E-01 -0.5390868E-01 -0.4923251E-01  -0.9849496E+00 -0.2426231E-15 -0.1728416E+00
 -0.1001803E+00 -0.5390868E-01  0.1608408E-01  -0.9849496E+00 -0.2426231E-15 -0.1728416E+00
 -0.1001803E+00  0.5390868E-01  0.1608408E-01  -0.9849496E+00 -0.2426231E-15 -0.1728416E+00
           6
  0.1001803E+00  0.5390868E-01 -0.1608408E-01   0.0000000E+00  0.1000000E+01 -0.2949333E-15
  0.8871835E-01  0.5390868E-01 -0.4923251E-01   0.0000000E+00  0.1000000E+01 -0.2949333E-15
 -0.8871835E-01  0.5390868E-01 -0.4923251E-01   0.0000000E+00  0.1000000E+01 -0.2949333E-15
 -0.1001803E+00  0.5390868E-01  0.1608408E-01   0.0000000E+00  0.1000000E+01 -0.2949333E-15
 -0.8871835E-01  0.5390868E-01  0.4923251E-01   0.0000000E+00  0.1000000E+01 -0.2949333E-15
  0.8871835E-01  0.5390868E-01  0.4923251E-01   0.0000000E+00  0.1000000E+01 -0.2949333E-15
           4
  0.8871835E-01 -0.5390868E-01  0.4923251E-01  -0.0000000E+00 -0.0000000E+00  0.1000000E+01
  0.8871835E-01  0.5390868E-01  0.4923251E-01  -0.0000000E+00 -0.0000000E+00  0.1000000E+01
 -0.8871835E-01  0.5390868E-01  0.4923251E-01  -0.0000000E+00 -0.0000000E+00  0.1000000E+01
 -0.8871835E-01 -0.5390868E-01  0.4923251E-01  -0.0000000E+00 -0.0000000E+00  0.1000000E+01
           4
 -0.8871835E-01  0.5390868E-01  0.4923251E-01  -0.9450964E+00  0.8897943E-16  0.3267915E+00
 -0.1001803E+00  0.5390868E-01  0.1608408E-01  -0.9450964E+00  0.8897943E-16  0.3267915E+00
 -0.1001803E+00 -0.5390868E-01  0.1608408E-01  -0.9450964E+00  0.8897943E-16  0.3267915E+00
 -0.8871835E-01 -0.5390868E-01  0.4923251E-01  -0.9450964E+00  0.8897943E-16  0.3267915E+00
 BRILLOUIN-ZONE-CONVCELL_END
 ATOMS
   19    0.0000000000    4.6767038670    0.0000000000    0.0000000000   -0.0004476000    0.0000000000
   19    2.6469235060    9.1948975750    0.0000000000    0.0000000000    0.0005941400    0.0000000000
   12   -0.8910902870    6.0715928960    5.0779451520    0.0000000000   -0.0001496100    0.0000000000
   12    1.7558332190    4.5738166080    5.0779451520    0.0000000000   -0.0001753900    0.0000000000
   12    1.7558332190    7.7062069530    5.0779451520    0.0000000000   -0.0000561500    0.0000000000
   12    1.7558332190    1.7991163380    5.0779451520    0.0000000000   -0.0001220800    0.0000000000
   14    0.0809954200    1.4848086560    2.1887059070    0.0002328400    0.0000540800   -0.0000503500
   14    3.4306707260    1.4848086560    7.9671847020   -0.0002328400    0.0000540800    0.0000503500
   14    3.6124951460    7.7281354700    7.8196781360   -0.0001060100    0.0001028700    0.0004001000
   14   -0.1008286590    7.7281354700    2.3362120170    0.0001060100    0.0001028700   -0.0004001000
   14    2.5583401800    6.1577861600    2.3330150350   -0.0000057100    0.0001563500   -0.0001401600
   14    0.9533262850    6.1577861600    7.8228751170    0.0000057100    0.0001563500    0.0001401600
   13    0.7754252380    3.0998119280    7.8527141280   -0.0001142100    0.0002310800   -0.0000548100
   13    2.7362411470    3.0998119280    2.3031764810    0.0001142100    0.0002310800    0.0000548100
    8   -0.0270391920    1.3325156530    3.8594097530    0.0003590800    0.0002911800    0.0001766900
    8    3.5387053810    1.3325156530    6.2964808560   -0.0003590800    0.0002911800   -0.0001766900
    8    3.5912272350    7.8642463340    6.1716976490   -0.0002963900   -0.0000358100    0.0005869100
    8   -0.0795608880    7.8642463340    3.9841929600    0.0002963900   -0.0000358100   -0.0005869100
    8    2.6249782560    6.2729336600    3.9528399030   -0.0000097700   -0.0003797200   -0.0001533400
    8    0.8866881830    6.2729336600    6.2030504010    0.0000097700   -0.0003797200    0.0001533400
    8    0.8541209990    3.1194339590    6.1481252480   -0.0004877600    0.0006895800   -0.0001144500
    8    2.6575455980    3.1194339590    4.0077650570    0.0004877600    0.0006895800    0.0001144500
    8    1.5940980640    1.8272636780    1.7341720870    0.0000462900   -0.0001474200   -0.0001719400
    8    1.9175686400    1.8272636780    8.4217176090   -0.0000462900   -0.0001474200    0.0001719400
    8   -0.2639954560    9.2227044130    1.6524074960   -0.0000872400    0.0001775600    0.0003728600
    8    3.7756619480    9.2227044130    8.5034825040    0.0000872400    0.0001775600   -0.0003728600
    8    2.2032642650    7.1171491670    8.3875581730   -0.0000446100    0.0000099400   -0.0003388300
    8    1.3084023320    7.1171491670    1.7683321320    0.0000446100    0.0000099400    0.0003388300
    8    3.9208158770    6.9101678040    1.7230007380    0.0002368300   -0.0002211900    0.0004931000
    8   -0.4091495180    6.9101678040    8.4328895660   -0.0002368300   -0.0002211900   -0.0004931000
    8    2.4653984830    4.7144999020    1.6224308030   -0.0002584600    0.0001960100    0.0002581600
    8    1.0462676640    4.7144999020    8.5334593500    0.0002584600    0.0001960100   -0.0002581600
    8   -0.7702396340    2.5161698290    8.5261019200    0.0001762300   -0.0001747000    0.0003294500
    8    4.2819061240    2.5161698290    1.6297880900   -0.0001762300   -0.0001747000   -0.0003294500
    8    0.1146772190    4.9149535800    3.8344357050    0.0000863200   -0.0002029100   -0.0000477200
    8    3.3969893250    4.9149535800    6.3214549040   -0.0000863200   -0.0002029100    0.0000477200
    8    2.6903811500    0.0570535650    4.0775572680   -0.0009225400   -0.0001941600   -0.0003889300
    8    0.8212853400    0.0570535650    6.0783327410    0.0009225400   -0.0001941600    0.0003889300
    1   -0.4072881770    4.0921634510    3.7972531470    0.0000256400   -0.0001443500    0.0001547900
    1    3.9189547850    4.0921634510    6.3586368530   -0.0000256400   -0.0001443500   -0.0001547900
    1    2.6207569240    0.2890104280    3.1327319250    0.0002435200   -0.0003345500   -0.0003447400
    1    0.8909096730    0.2890104280    7.0231583790   -0.0002435200   -0.0003345500    0.0003447400
   22   -0.8910902870    0.2200471980    5.0779451520    0.0000000000    0.0002090100    0.0000000000
   19   -1.7821828330    4.6767038670   10.1558906840    0.0000000000   -0.0004476000    0.0000000000
   19    0.8647406730    9.1948975750   10.1558906840    0.0000000000    0.0005941400    0.0000000000
   19    5.2938447440    4.6767038670    0.0000000000    0.0000000000   -0.0004476000    0.0000000000
   12    4.4027544570    6.0715928960    5.0779451520    0.0000000000   -0.0001496100    0.0000000000
   22    4.4027544570    0.2200471980    5.0779451520    0.0000000000    0.0002090100    0.0000000000
   19    3.5116619110    4.6767038670   10.1558906840    0.0000000000   -0.0004476000    0.0000000000
 FRAMES
1      0.0000000000    0.0000000000    0.0000000000      5.2938447440    0.0000000000    0.0000000000
1      0.0000000000    0.0000000000    0.0000000000      0.0000000000    9.2749441840    0.0000000000
1      0.0000000000    0.0000000000    0.0000000000     -1.7821828330    0.0000000000   10.1558906840
1     -1.7821828330    0.0000000000   10.1558906840      3.5116619110    0.0000000000   10.1558906840
1     -1.7821828330    0.0000000000   10.1558906840     -1.7821828330    9.2749441840   10.1558906840
1      0.0000000000    9.2749441840    0.0000000000      5.2938447440    9.2749441840    0.0000000000
1      0.0000000000    9.2749441840    0.0000000000     -1.7821828330    9.2749441840   10.1558906840
1     -1.7821828330    9.2749441840   10.1558906840      3.5116619110    9.2749441840   10.1558906840
1      5.2938447440    0.0000000000    0.0000000000      5.2938447440    9.2749441840    0.0000000000
1      5.2938447440    0.0000000000    0.0000000000      3.5116619110    0.0000000000   10.1558906840
1      3.5116619110    0.0000000000   10.1558906840      3.5116619110    9.2749441840   10.1558906840
1      5.2938447440    9.2749441840    0.0000000000      3.5116619110    9.2749441840   10.1558906840
