 INFO
nunit      1    1    1
unit   cell
celltype   primcell
shape   parapipedal
 END_INFO
 DIM-GROUP
           3           1
 PRIMVEC
    5.3355265990    0.0000000000    0.0000000000
    0.0000000000    9.2762848290    0.0000000000
   -1.8347064230    0.0000000000   10.2476691920
 CONVVEC
    5.3355265990    0.0000000000    0.0000000000
    0.0000000000    9.2762848290    0.0000000000
   -1.8347064230    0.0000000000   10.2476691920
 PRIMCOORD
          44           1
 19      0.0000000000     4.5319806910     0.0000000000     0.0000000000    -0.0007868600     0.0000000000
 19      2.6677644550     0.0867827060     0.0000000000     0.0000000000     0.0007399200     0.0000000000
 12     -0.9173538030     0.0361416140     5.1238335050     0.0000000000    -0.0000682100     0.0000000000
 12     -0.9173538030     3.0816983510     5.1238335050     0.0000000000    -0.0002160800     0.0000000000
 12     -0.9173538030     6.1767766530     5.1238335050     0.0000000000     0.0005305600     0.0000000000
 12      1.7504106510     7.7460447580     5.1238335050     0.0000000000     0.0000579800     0.0000000000
 12      1.7504106510     1.5717599750     5.1238335050     0.0000000000    -0.0001093800     0.0000000000
 14      0.0296489180     1.5284039930     2.3185747740     0.0000359900     0.0000744600     0.0000718700
 14      3.4711721020     1.5284039930     7.9290926860    -0.0000359900     0.0000744600    -0.0000718700
 14      3.5765487570     7.7393055080     7.8661599910    -0.0000235900    -0.0000911300     0.0002666000
 14     -0.0757272940     7.7393055080     2.3815070180     0.0000235900    -0.0000911300    -0.0002666000
 14      2.5927876590     6.1940773790     2.3646588430    -0.0001086600     0.0000879700     0.0000682300
 14      0.9080334840     6.1940773790     7.8830081660     0.0001086600     0.0000879700    -0.0000682300
 13      0.7975795400     3.0738647300     7.9063167900     0.0001476200     0.0000197600    -0.0001259500
 13      2.7032417350     3.0738647300     2.3413503730    -0.0001476200     0.0000197600     0.0001259500
  8     -0.0267254160     1.5123358970     3.9531895540     0.0001699700    -0.0001896100     0.0002260600
  8      3.5275464310     1.5123358970     6.2944777530    -0.0001699700    -0.0001896100    -0.0002260600
  8      3.5472513290     7.7308109190     6.2448114870     0.0002377100    -0.0001376500    -0.0000280300
  8     -0.0464298660     7.7308109190     4.0028555220    -0.0002377100    -0.0001376500     0.0000280300
  8      2.6371746440     6.2522726910     3.9910825910    -0.0004188900     0.0000222400     0.0003645300
  8      0.8636465540     6.2522726910     6.2565841110     0.0004188900     0.0000222400    -0.0003645300
  8      0.8116970720     3.0412321410     6.1668312150    -0.0000180900     0.0000663400    -0.0002578400
  8      2.6891242310     3.0412321410     4.0808357940     0.0000180900     0.0000663400     0.0002578400
  8      1.4969956630     1.9276044000     1.7331554950     0.0000499100    -0.0004397000    -0.0002170700
  8      2.0038256400     1.9276044000     8.5145115150    -0.0000499100    -0.0004397000     0.0002170700
  8      5.0453231590     9.2483338970     1.7633137260    -0.0000939300     0.0000429200    -0.0000069000
  8     -1.5445019950     9.2483338970     8.4843532840     0.0000939300     0.0000429200     0.0000069000
  8      2.1505639160     7.1487103250     8.4692319510    -0.0002747300     0.0004376700     0.0001832900
  8      1.3502573860     7.1487103250     1.7784350580     0.0002747300     0.0004376700    -0.0001832900
  8      4.0162198140     6.8341531380     1.7651177690     0.0000353300    -0.0002499800    -0.0001190000
  8     -0.5153984580     6.8341531380     8.4825493940    -0.0000353300    -0.0002499800     0.0001190000
  8      2.3904055580     4.7166269210     1.7307105660    -0.0005032700     0.0002477500    -0.0004369200
  8      1.1104155290     4.7166269210     8.5169567510     0.0005032700     0.0002477500     0.0004369200
  8     -0.7481498620     2.5254680150     8.5711612430     0.0000267700    -0.0001555500     0.0001950200
  8      4.2489713500     2.5254680150     1.6765060740    -0.0000267700    -0.0001555500    -0.0001950200
  8     -0.0848466000     4.6701689400     4.0482909640     0.0002137400    -0.0000103800     0.0002144700
  8      3.5856679960     4.6701689400     6.1993757380    -0.0002137400    -0.0000103800    -0.0002144700
  8      2.6488793610     9.2699896350     4.0978455850    -0.0005001800     0.0001672900     0.0002394300
  8      0.8519419970     9.2699896350     6.1498211170     0.0005001800     0.0001672900    -0.0002394300
  1      0.0200604070     4.6064043770     3.0897358180    -0.0000906700     0.0001822000    -0.0003522700
  1      3.4807608960     4.6064043770     7.1579311910     0.0000906700     0.0001822000     0.0003522700
  1      2.6320717160     0.1262453120     3.1405349980    -0.0000280300    -0.0002799600     0.0003098500
  1      0.8687494260     0.1262453120     7.1071320120     0.0000280300    -0.0002799600    -0.0003098500
 26      1.7504106510     4.5550033010     5.1238335050     0.0000000000     0.0002627600     0.0000000000
 CONVCOORD
          44           1
 19      0.0000000000     4.5319806910     0.0000000000
 19      2.6677644550     0.0867827060     0.0000000000
 12     -0.9173538030     0.0361416140     5.1238335050
 12     -0.9173538030     3.0816983510     5.1238335050
 12     -0.9173538030     6.1767766530     5.1238335050
 12      1.7504106510     7.7460447580     5.1238335050
 12      1.7504106510     1.5717599750     5.1238335050
 14      0.0296489180     1.5284039930     2.3185747740
 14      3.4711721020     1.5284039930     7.9290926860
 14      3.5765487570     7.7393055080     7.8661599910
 14     -0.0757272940     7.7393055080     2.3815070180
 14      2.5927876590     6.1940773790     2.3646588430
 14      0.9080334840     6.1940773790     7.8830081660
 13      0.7975795400     3.0738647300     7.9063167900
 13      2.7032417350     3.0738647300     2.3413503730
  8     -0.0267254160     1.5123358970     3.9531895540
  8      3.5275464310     1.5123358970     6.2944777530
  8      3.5472513290     7.7308109190     6.2448114870
  8     -0.0464298660     7.7308109190     4.0028555220
  8      2.6371746440     6.2522726910     3.9910825910
  8      0.8636465540     6.2522726910     6.2565841110
  8      0.8116970720     3.0412321410     6.1668312150
  8      2.6891242310     3.0412321410     4.0808357940
  8      1.4969956630     1.9276044000     1.7331554950
  8      2.0038256400     1.9276044000     8.5145115150
  8     -0.2902034400     9.2483338970     1.7633137260
  8     -1.5445019950     9.2483338970     8.4843532840
  8      2.1505639160     7.1487103250     8.4692319510
  8      1.3502573860     7.1487103250     1.7784350580
  8      4.0162198140     6.8341531380     1.7651177690
  8     -0.5153984580     6.8341531380     8.4825493940
  8      2.3904055580     4.7166269210     1.7307105660
  8      1.1104155290     4.7166269210     8.5169567510
  8     -0.7481498620     2.5254680150     8.5711612430
  8      4.2489713500     2.5254680150     1.6765060740
  8     -0.0848466000     4.6701689400     4.0482909640
  8      3.5856679960     4.6701689400     6.1993757380
  8      2.6488793610     9.2699896350     4.0978455850
  8      0.8519419970     9.2699896350     6.1498211170
  1      0.0200604070     4.6064043770     3.0897358180
  1      3.4807608960     4.6064043770     7.1579311910
  1      2.6320717160     0.1262453120     3.1405349980
  1      0.8687494260     0.1262453120     7.1071320120
 26      1.7504106510     4.5550033010     5.1238335050
 RECIP-PRIMVEC
    0.1874229247   -0.0000000000    0.0335555371

    0.0000000000    0.1078017782   -0.0000000000

    0.0000000000    0.0000000000    0.0975831656

 RECIP-CONVVEC
    0.1874229247   -0.0000000000    0.0335555371

    0.0000000000    0.1078017782   -0.0000000000

    0.0000000000    0.0000000000    0.0975831656

 WIGNER-SEITZ-PRIMCELL
           4
 -0.2667763E+01  0.4638142E+01 -0.4810447E+01  -0.3232775E+00 -0.1097326E-16 -0.9463042E+00
 -0.8330569E+00  0.4638142E+01 -0.5437222E+01  -0.3232775E+00 -0.1097326E-16 -0.9463042E+00
 -0.8330569E+00 -0.4638142E+01 -0.5437222E+01  -0.3232775E+00 -0.1097326E-16 -0.9463042E+00
 -0.2667763E+01 -0.4638142E+01 -0.4810447E+01  -0.3232775E+00 -0.1097326E-16 -0.9463042E+00
           4
 -0.2667763E+01  0.4638142E+01 -0.4810447E+01  -0.1000000E+01  0.4787361E-16  0.8839158E-32
 -0.2667763E+01 -0.4638142E+01 -0.4810447E+01  -0.1000000E+01  0.4787361E-16  0.8839158E-32
 -0.2667763E+01 -0.4638142E+01  0.4810447E+01  -0.1000000E+01  0.4787361E-16  0.8839158E-32
 -0.2667763E+01  0.4638142E+01  0.4810447E+01  -0.1000000E+01  0.4787361E-16  0.8839158E-32
           6
  0.2667763E+01 -0.4638142E+01  0.4810447E+01  -0.0000000E+00 -0.1000000E+01  0.5311799E-15
  0.8330569E+00 -0.4638142E+01  0.5437222E+01  -0.0000000E+00 -0.1000000E+01  0.5311799E-15
 -0.2667763E+01 -0.4638142E+01  0.4810447E+01  -0.0000000E+00 -0.1000000E+01  0.5311799E-15
 -0.2667763E+01 -0.4638142E+01 -0.4810447E+01  -0.0000000E+00 -0.1000000E+01  0.5311799E-15
 -0.8330569E+00 -0.4638142E+01 -0.5437222E+01  -0.0000000E+00 -0.1000000E+01  0.5311799E-15
  0.2667763E+01 -0.4638142E+01 -0.4810447E+01  -0.0000000E+00 -0.1000000E+01  0.5311799E-15
           4
  0.2667763E+01 -0.4638142E+01 -0.4810447E+01   0.1762342E+00  0.1717374E-15 -0.9843483E+00
 -0.8330569E+00 -0.4638142E+01 -0.5437222E+01   0.1762342E+00  0.1717374E-15 -0.9843483E+00
 -0.8330569E+00  0.4638142E+01 -0.5437222E+01   0.1762342E+00  0.1717374E-15 -0.9843483E+00
  0.2667763E+01  0.4638142E+01 -0.4810447E+01   0.1762342E+00  0.1717374E-15 -0.9843483E+00
           4
  0.8330569E+00  0.4638142E+01  0.5437222E+01  -0.1762342E+00  0.7738538E-16  0.9843483E+00
 -0.2667763E+01  0.4638142E+01  0.4810447E+01  -0.1762342E+00  0.7738538E-16  0.9843483E+00
 -0.2667763E+01 -0.4638142E+01  0.4810447E+01  -0.1762342E+00  0.7738538E-16  0.9843483E+00
  0.8330569E+00 -0.4638142E+01  0.5437222E+01  -0.1762342E+00  0.7738538E-16  0.9843483E+00
           6
  0.2667763E+01  0.4638142E+01 -0.4810447E+01  -0.1179456E-29  0.1000000E+01 -0.5311799E-15
 -0.8330569E+00  0.4638142E+01 -0.5437222E+01  -0.1179456E-29  0.1000000E+01 -0.5311799E-15
 -0.2667763E+01  0.4638142E+01 -0.4810447E+01  -0.1179456E-29  0.1000000E+01 -0.5311799E-15
 -0.2667763E+01  0.4638142E+01  0.4810447E+01  -0.1179456E-29  0.1000000E+01 -0.5311799E-15
  0.8330569E+00  0.4638142E+01  0.5437222E+01  -0.1179456E-29  0.1000000E+01 -0.5311799E-15
  0.2667763E+01  0.4638142E+01  0.4810447E+01  -0.1179456E-29  0.1000000E+01 -0.5311799E-15
           4
  0.2667763E+01  0.4638142E+01  0.4810447E+01   0.1000000E+01 -0.4787361E-16  0.4419579E-32
  0.2667763E+01 -0.4638142E+01  0.4810447E+01   0.1000000E+01 -0.4787361E-16  0.4419579E-32
  0.2667763E+01 -0.4638142E+01 -0.4810447E+01   0.1000000E+01 -0.4787361E-16  0.4419579E-32
  0.2667763E+01  0.4638142E+01 -0.4810447E+01   0.1000000E+01 -0.4787361E-16  0.4419579E-32
           4
  0.2667763E+01 -0.4638142E+01  0.4810447E+01   0.3232775E+00 -0.9876893E-16  0.9463042E+00
  0.2667763E+01  0.4638142E+01  0.4810447E+01   0.3232775E+00 -0.9876893E-16  0.9463042E+00
  0.8330569E+00  0.4638142E+01  0.5437222E+01   0.3232775E+00 -0.9876893E-16  0.9463042E+00
  0.8330569E+00 -0.4638142E+01  0.5437222E+01   0.3232775E+00 -0.9876893E-16  0.9463042E+00
 WIGNER-SEITZ-PRIMCELL_END
 WIGNER-SEITZ-CONVCELL
           4
 -0.2667763E+01  0.4638142E+01 -0.4810447E+01  -0.3232775E+00 -0.1097326E-16 -0.9463042E+00
 -0.8330569E+00  0.4638142E+01 -0.5437222E+01  -0.3232775E+00 -0.1097326E-16 -0.9463042E+00
 -0.8330569E+00 -0.4638142E+01 -0.5437222E+01  -0.3232775E+00 -0.1097326E-16 -0.9463042E+00
 -0.2667763E+01 -0.4638142E+01 -0.4810447E+01  -0.3232775E+00 -0.1097326E-16 -0.9463042E+00
           4
 -0.2667763E+01  0.4638142E+01 -0.4810447E+01  -0.1000000E+01  0.4787361E-16  0.8839158E-32
 -0.2667763E+01 -0.4638142E+01 -0.4810447E+01  -0.1000000E+01  0.4787361E-16  0.8839158E-32
 -0.2667763E+01 -0.4638142E+01  0.4810447E+01  -0.1000000E+01  0.4787361E-16  0.8839158E-32
 -0.2667763E+01  0.4638142E+01  0.4810447E+01  -0.1000000E+01  0.4787361E-16  0.8839158E-32
           6
  0.2667763E+01 -0.4638142E+01  0.4810447E+01  -0.0000000E+00 -0.1000000E+01  0.5311799E-15
  0.8330569E+00 -0.4638142E+01  0.5437222E+01  -0.0000000E+00 -0.1000000E+01  0.5311799E-15
 -0.2667763E+01 -0.4638142E+01  0.4810447E+01  -0.0000000E+00 -0.1000000E+01  0.5311799E-15
 -0.2667763E+01 -0.4638142E+01 -0.4810447E+01  -0.0000000E+00 -0.1000000E+01  0.5311799E-15
 -0.8330569E+00 -0.4638142E+01 -0.5437222E+01  -0.0000000E+00 -0.1000000E+01  0.5311799E-15
  0.2667763E+01 -0.4638142E+01 -0.4810447E+01  -0.0000000E+00 -0.1000000E+01  0.5311799E-15
           4
  0.2667763E+01 -0.4638142E+01 -0.4810447E+01   0.1762342E+00  0.1717374E-15 -0.9843483E+00
 -0.8330569E+00 -0.4638142E+01 -0.5437222E+01   0.1762342E+00  0.1717374E-15 -0.9843483E+00
 -0.8330569E+00  0.4638142E+01 -0.5437222E+01   0.1762342E+00  0.1717374E-15 -0.9843483E+00
  0.2667763E+01  0.4638142E+01 -0.4810447E+01   0.1762342E+00  0.1717374E-15 -0.9843483E+00
           4
  0.8330569E+00  0.4638142E+01  0.5437222E+01  -0.1762342E+00  0.7738538E-16  0.9843483E+00
 -0.2667763E+01  0.4638142E+01  0.4810447E+01  -0.1762342E+00  0.7738538E-16  0.9843483E+00
 -0.2667763E+01 -0.4638142E+01  0.4810447E+01  -0.1762342E+00  0.7738538E-16  0.9843483E+00
  0.8330569E+00 -0.4638142E+01  0.5437222E+01  -0.1762342E+00  0.7738538E-16  0.9843483E+00
           6
  0.2667763E+01  0.4638142E+01 -0.4810447E+01  -0.1179456E-29  0.1000000E+01 -0.5311799E-15
 -0.8330569E+00  0.4638142E+01 -0.5437222E+01  -0.1179456E-29  0.1000000E+01 -0.5311799E-15
 -0.2667763E+01  0.4638142E+01 -0.4810447E+01  -0.1179456E-29  0.1000000E+01 -0.5311799E-15
 -0.2667763E+01  0.4638142E+01  0.4810447E+01  -0.1179456E-29  0.1000000E+01 -0.5311799E-15
  0.8330569E+00  0.4638142E+01  0.5437222E+01  -0.1179456E-29  0.1000000E+01 -0.5311799E-15
  0.2667763E+01  0.4638142E+01  0.4810447E+01  -0.1179456E-29  0.1000000E+01 -0.5311799E-15
           4
  0.2667763E+01  0.4638142E+01  0.4810447E+01   0.1000000E+01 -0.4787361E-16  0.4419579E-32
  0.2667763E+01 -0.4638142E+01  0.4810447E+01   0.1000000E+01 -0.4787361E-16  0.4419579E-32
  0.2667763E+01 -0.4638142E+01 -0.4810447E+01   0.1000000E+01 -0.4787361E-16  0.4419579E-32
  0.2667763E+01  0.4638142E+01 -0.4810447E+01   0.1000000E+01 -0.4787361E-16  0.4419579E-32
           4
  0.2667763E+01 -0.4638142E+01  0.4810447E+01   0.3232775E+00 -0.9876893E-16  0.9463042E+00
  0.2667763E+01  0.4638142E+01  0.4810447E+01   0.3232775E+00 -0.9876893E-16  0.9463042E+00
  0.8330569E+00  0.4638142E+01  0.5437222E+01   0.3232775E+00 -0.9876893E-16  0.9463042E+00
  0.8330569E+00 -0.4638142E+01  0.5437222E+01   0.3232775E+00 -0.9876893E-16  0.9463042E+00
 WIGNER-SEITZ-CONVCELL_END
 BRILLOUIN-ZONE-PRIMCELL
           4
  0.9944310E-01  0.5390089E-01 -0.1523605E-01   0.9463042E+00  0.1134517E-15 -0.3232775E+00
  0.9944310E-01 -0.5390089E-01 -0.1523605E-01   0.9463042E+00  0.1134517E-15 -0.3232775E+00
  0.8797982E-01 -0.5390089E-01 -0.4879158E-01   0.9463042E+00  0.1134517E-15 -0.3232775E+00
  0.8797982E-01  0.5390089E-01 -0.4879158E-01   0.9463042E+00  0.1134517E-15 -0.3232775E+00
           4
 -0.8797982E-01  0.5390089E-01 -0.4879158E-01  -0.4572579E-16 -0.3569654E-16 -0.1000000E+01
  0.8797982E-01  0.5390089E-01 -0.4879158E-01  -0.4572579E-16 -0.3569654E-16 -0.1000000E+01
  0.8797982E-01 -0.5390089E-01 -0.4879158E-01  -0.4572579E-16 -0.3569654E-16 -0.1000000E+01
 -0.8797982E-01 -0.5390089E-01 -0.4879158E-01  -0.4572579E-16 -0.3569654E-16 -0.1000000E+01
           6
  0.8797982E-01 -0.5390089E-01  0.4879158E-01   0.0000000E+00 -0.1000000E+01  0.0000000E+00
 -0.8797982E-01 -0.5390089E-01  0.4879158E-01   0.0000000E+00 -0.1000000E+01  0.0000000E+00
 -0.9944310E-01 -0.5390089E-01  0.1523605E-01   0.0000000E+00 -0.1000000E+01  0.0000000E+00
 -0.8797982E-01 -0.5390089E-01 -0.4879158E-01   0.0000000E+00 -0.1000000E+01  0.0000000E+00
  0.8797982E-01 -0.5390089E-01 -0.4879158E-01   0.0000000E+00 -0.1000000E+01  0.0000000E+00
  0.9944310E-01 -0.5390089E-01 -0.1523605E-01   0.0000000E+00 -0.1000000E+01  0.0000000E+00
           4
  0.8797982E-01  0.5390089E-01  0.4879158E-01   0.9843483E+00 -0.1546200E-16  0.1762342E+00
  0.8797982E-01 -0.5390089E-01  0.4879158E-01   0.9843483E+00 -0.1546200E-16  0.1762342E+00
  0.9944310E-01 -0.5390089E-01 -0.1523605E-01   0.9843483E+00 -0.1546200E-16  0.1762342E+00
  0.9944310E-01  0.5390089E-01 -0.1523605E-01   0.9843483E+00 -0.1546200E-16  0.1762342E+00
           4
 -0.8797982E-01  0.5390089E-01 -0.4879158E-01  -0.9843483E+00  0.2783160E-15 -0.1762342E+00
 -0.8797982E-01 -0.5390089E-01 -0.4879158E-01  -0.9843483E+00  0.2783160E-15 -0.1762342E+00
 -0.9944310E-01 -0.5390089E-01  0.1523605E-01  -0.9843483E+00  0.2783160E-15 -0.1762342E+00
 -0.9944310E-01  0.5390089E-01  0.1523605E-01  -0.9843483E+00  0.2783160E-15 -0.1762342E+00
           6
  0.9944310E-01  0.5390089E-01 -0.1523605E-01   0.0000000E+00  0.1000000E+01  0.2938008E-15
  0.8797982E-01  0.5390089E-01 -0.4879158E-01   0.0000000E+00  0.1000000E+01  0.2938008E-15
 -0.8797982E-01  0.5390089E-01 -0.4879158E-01   0.0000000E+00  0.1000000E+01  0.2938008E-15
 -0.9944310E-01  0.5390089E-01  0.1523605E-01   0.0000000E+00  0.1000000E+01  0.2938008E-15
 -0.8797982E-01  0.5390089E-01  0.4879158E-01   0.0000000E+00  0.1000000E+01  0.2938008E-15
  0.8797982E-01  0.5390089E-01  0.4879158E-01   0.0000000E+00  0.1000000E+01  0.2938008E-15
           4
  0.8797982E-01 -0.5390089E-01  0.4879158E-01  -0.0000000E+00  0.9145159E-16  0.1000000E+01
  0.8797982E-01  0.5390089E-01  0.4879158E-01  -0.0000000E+00  0.9145159E-16  0.1000000E+01
 -0.8797982E-01  0.5390089E-01  0.4879158E-01  -0.0000000E+00  0.9145159E-16  0.1000000E+01
 -0.8797982E-01 -0.5390089E-01  0.4879158E-01  -0.0000000E+00  0.9145159E-16  0.1000000E+01
           4
 -0.9944310E-01  0.5390089E-01  0.1523605E-01  -0.9463042E+00  0.2907199E-15  0.3232775E+00
 -0.9944310E-01 -0.5390089E-01  0.1523605E-01  -0.9463042E+00  0.2907199E-15  0.3232775E+00
 -0.8797982E-01 -0.5390089E-01  0.4879158E-01  -0.9463042E+00  0.2907199E-15  0.3232775E+00
 -0.8797982E-01  0.5390089E-01  0.4879158E-01  -0.9463042E+00  0.2907199E-15  0.3232775E+00
 BRILLOUIN-ZONE-PRIMCELL_END
 BRILLOUIN-ZONE-CONVCELL
           4
  0.9944310E-01  0.5390089E-01 -0.1523605E-01   0.9463042E+00  0.1134517E-15 -0.3232775E+00
  0.9944310E-01 -0.5390089E-01 -0.1523605E-01   0.9463042E+00  0.1134517E-15 -0.3232775E+00
  0.8797982E-01 -0.5390089E-01 -0.4879158E-01   0.9463042E+00  0.1134517E-15 -0.3232775E+00
  0.8797982E-01  0.5390089E-01 -0.4879158E-01   0.9463042E+00  0.1134517E-15 -0.3232775E+00
           4
 -0.8797982E-01  0.5390089E-01 -0.4879158E-01  -0.4572579E-16 -0.3569654E-16 -0.1000000E+01
  0.8797982E-01  0.5390089E-01 -0.4879158E-01  -0.4572579E-16 -0.3569654E-16 -0.1000000E+01
  0.8797982E-01 -0.5390089E-01 -0.4879158E-01  -0.4572579E-16 -0.3569654E-16 -0.1000000E+01
 -0.8797982E-01 -0.5390089E-01 -0.4879158E-01  -0.4572579E-16 -0.3569654E-16 -0.1000000E+01
           6
  0.8797982E-01 -0.5390089E-01  0.4879158E-01   0.0000000E+00 -0.1000000E+01  0.0000000E+00
 -0.8797982E-01 -0.5390089E-01  0.4879158E-01   0.0000000E+00 -0.1000000E+01  0.0000000E+00
 -0.9944310E-01 -0.5390089E-01  0.1523605E-01   0.0000000E+00 -0.1000000E+01  0.0000000E+00
 -0.8797982E-01 -0.5390089E-01 -0.4879158E-01   0.0000000E+00 -0.1000000E+01  0.0000000E+00
  0.8797982E-01 -0.5390089E-01 -0.4879158E-01   0.0000000E+00 -0.1000000E+01  0.0000000E+00
  0.9944310E-01 -0.5390089E-01 -0.1523605E-01   0.0000000E+00 -0.1000000E+01  0.0000000E+00
           4
  0.8797982E-01  0.5390089E-01  0.4879158E-01   0.9843483E+00 -0.1546200E-16  0.1762342E+00
  0.8797982E-01 -0.5390089E-01  0.4879158E-01   0.9843483E+00 -0.1546200E-16  0.1762342E+00
  0.9944310E-01 -0.5390089E-01 -0.1523605E-01   0.9843483E+00 -0.1546200E-16  0.1762342E+00
  0.9944310E-01  0.5390089E-01 -0.1523605E-01   0.9843483E+00 -0.1546200E-16  0.1762342E+00
           4
 -0.8797982E-01  0.5390089E-01 -0.4879158E-01  -0.9843483E+00  0.2783160E-15 -0.1762342E+00
 -0.8797982E-01 -0.5390089E-01 -0.4879158E-01  -0.9843483E+00  0.2783160E-15 -0.1762342E+00
 -0.9944310E-01 -0.5390089E-01  0.1523605E-01  -0.9843483E+00  0.2783160E-15 -0.1762342E+00
 -0.9944310E-01  0.5390089E-01  0.1523605E-01  -0.9843483E+00  0.2783160E-15 -0.1762342E+00
           6
  0.9944310E-01  0.5390089E-01 -0.1523605E-01   0.0000000E+00  0.1000000E+01  0.2938008E-15
  0.8797982E-01  0.5390089E-01 -0.4879158E-01   0.0000000E+00  0.1000000E+01  0.2938008E-15
 -0.8797982E-01  0.5390089E-01 -0.4879158E-01   0.0000000E+00  0.1000000E+01  0.2938008E-15
 -0.9944310E-01  0.5390089E-01  0.1523605E-01   0.0000000E+00  0.1000000E+01  0.2938008E-15
 -0.8797982E-01  0.5390089E-01  0.4879158E-01   0.0000000E+00  0.1000000E+01  0.2938008E-15
  0.8797982E-01  0.5390089E-01  0.4879158E-01   0.0000000E+00  0.1000000E+01  0.2938008E-15
           4
  0.8797982E-01 -0.5390089E-01  0.4879158E-01  -0.0000000E+00  0.9145159E-16  0.1000000E+01
  0.8797982E-01  0.5390089E-01  0.4879158E-01  -0.0000000E+00  0.9145159E-16  0.1000000E+01
 -0.8797982E-01  0.5390089E-01  0.4879158E-01  -0.0000000E+00  0.9145159E-16  0.1000000E+01
 -0.8797982E-01 -0.5390089E-01  0.4879158E-01  -0.0000000E+00  0.9145159E-16  0.1000000E+01
           4
 -0.9944310E-01  0.5390089E-01  0.1523605E-01  -0.9463042E+00  0.2907199E-15  0.3232775E+00
 -0.9944310E-01 -0.5390089E-01  0.1523605E-01  -0.9463042E+00  0.2907199E-15  0.3232775E+00
 -0.8797982E-01 -0.5390089E-01  0.4879158E-01  -0.9463042E+00  0.2907199E-15  0.3232775E+00
 -0.8797982E-01  0.5390089E-01  0.4879158E-01  -0.9463042E+00  0.2907199E-15  0.3232775E+00
 BRILLOUIN-ZONE-CONVCELL_END
 ATOMS
   19    0.0000000000    4.5319806910    0.0000000000    0.0000000000   -0.0007868600    0.0000000000
   19    2.6677644550    0.0867827060    0.0000000000    0.0000000000    0.0007399200    0.0000000000
   12   -0.9173538030    0.0361416140    5.1238335050    0.0000000000   -0.0000682100    0.0000000000
   12   -0.9173538030    3.0816983510    5.1238335050    0.0000000000   -0.0002160800    0.0000000000
   12   -0.9173538030    6.1767766530    5.1238335050    0.0000000000    0.0005305600    0.0000000000
   12    1.7504106510    7.7460447580    5.1238335050    0.0000000000    0.0000579800    0.0000000000
   12    1.7504106510    1.5717599750    5.1238335050    0.0000000000   -0.0001093800    0.0000000000
   14    0.0296489180    1.5284039930    2.3185747740    0.0000359900    0.0000744600    0.0000718700
   14    3.4711721020    1.5284039930    7.9290926860   -0.0000359900    0.0000744600   -0.0000718700
   14    3.5765487570    7.7393055080    7.8661599910   -0.0000235900   -0.0000911300    0.0002666000
   14   -0.0757272940    7.7393055080    2.3815070180    0.0000235900   -0.0000911300   -0.0002666000
   14    2.5927876590    6.1940773790    2.3646588430   -0.0001086600    0.0000879700    0.0000682300
   14    0.9080334840    6.1940773790    7.8830081660    0.0001086600    0.0000879700   -0.0000682300
   13    0.7975795400    3.0738647300    7.9063167900    0.0001476200    0.0000197600   -0.0001259500
   13    2.7032417350    3.0738647300    2.3413503730   -0.0001476200    0.0000197600    0.0001259500
    8   -0.0267254160    1.5123358970    3.9531895540    0.0001699700   -0.0001896100    0.0002260600
    8    3.5275464310    1.5123358970    6.2944777530   -0.0001699700   -0.0001896100   -0.0002260600
    8    3.5472513290    7.7308109190    6.2448114870    0.0002377100   -0.0001376500   -0.0000280300
    8   -0.0464298660    7.7308109190    4.0028555220   -0.0002377100   -0.0001376500    0.0000280300
    8    2.6371746440    6.2522726910    3.9910825910   -0.0004188900    0.0000222400    0.0003645300
    8    0.8636465540    6.2522726910    6.2565841110    0.0004188900    0.0000222400   -0.0003645300
    8    0.8116970720    3.0412321410    6.1668312150   -0.0000180900    0.0000663400   -0.0002578400
    8    2.6891242310    3.0412321410    4.0808357940    0.0000180900    0.0000663400    0.0002578400
    8    1.4969956630    1.9276044000    1.7331554950    0.0000499100   -0.0004397000   -0.0002170700
    8    2.0038256400    1.9276044000    8.5145115150   -0.0000499100   -0.0004397000    0.0002170700
    8   -0.2902034400    9.2483338970    1.7633137260   -0.0000939300    0.0000429200   -0.0000069000
    8    2.1505639160    7.1487103250    8.4692319510   -0.0002747300    0.0004376700    0.0001832900
    8    1.3502573860    7.1487103250    1.7784350580    0.0002747300    0.0004376700   -0.0001832900
    8    4.0162198140    6.8341531380    1.7651177690    0.0000353300   -0.0002499800   -0.0001190000
    8   -0.5153984580    6.8341531380    8.4825493940   -0.0000353300   -0.0002499800    0.0001190000
    8    2.3904055580    4.7166269210    1.7307105660   -0.0005032700    0.0002477500   -0.0004369200
    8    1.1104155290    4.7166269210    8.5169567510    0.0005032700    0.0002477500    0.0004369200
    8   -0.7481498620    2.5254680150    8.5711612430    0.0000267700   -0.0001555500    0.0001950200
    8    4.2489713500    2.5254680150    1.6765060740   -0.0000267700   -0.0001555500   -0.0001950200
    8   -0.0848466000    4.6701689400    4.0482909640    0.0002137400   -0.0000103800    0.0002144700
    8    3.5856679960    4.6701689400    6.1993757380   -0.0002137400   -0.0000103800   -0.0002144700
    8    2.6488793610    9.2699896350    4.0978455850   -0.0005001800    0.0001672900    0.0002394300
    8    0.8519419970    9.2699896350    6.1498211170    0.0005001800    0.0001672900   -0.0002394300
    1    0.0200604070    4.6064043770    3.0897358180   -0.0000906700    0.0001822000   -0.0003522700
    1    3.4807608960    4.6064043770    7.1579311910    0.0000906700    0.0001822000    0.0003522700
    1    2.6320717160    0.1262453120    3.1405349980   -0.0000280300   -0.0002799600    0.0003098500
    1    0.8687494260    0.1262453120    7.1071320120    0.0000280300   -0.0002799600   -0.0003098500
   26    1.7504106510    4.5550033010    5.1238335050    0.0000000000    0.0002627600    0.0000000000
   19   -1.8347064230    4.5319806910   10.2476691920    0.0000000000   -0.0007868600    0.0000000000
   19    0.8330580320    0.0867827060   10.2476691920    0.0000000000    0.0007399200    0.0000000000
   19    5.3355265990    4.5319806910    0.0000000000    0.0000000000   -0.0007868600    0.0000000000
   12    4.4181727960    0.0361416140    5.1238335050    0.0000000000   -0.0000682100    0.0000000000
   12    4.4181727960    3.0816983510    5.1238335050    0.0000000000   -0.0002160800    0.0000000000
   12    4.4181727960    6.1767766530    5.1238335050    0.0000000000    0.0005305600    0.0000000000
    8    3.7910246040    9.2483338970    8.4843532840    0.0000939300    0.0000429200    0.0000069000
   19    3.5008201760    4.5319806910   10.2476691920    0.0000000000   -0.0007868600    0.0000000000
 FRAMES
1      0.0000000000    0.0000000000    0.0000000000      5.3355265990    0.0000000000    0.0000000000
1      0.0000000000    0.0000000000    0.0000000000      0.0000000000    9.2762848290    0.0000000000
1      0.0000000000    0.0000000000    0.0000000000     -1.8347064230    0.0000000000   10.2476691920
1     -1.8347064230    0.0000000000   10.2476691920      3.5008201760    0.0000000000   10.2476691920
1     -1.8347064230    0.0000000000   10.2476691920     -1.8347064230    9.2762848290   10.2476691920
1      0.0000000000    9.2762848290    0.0000000000      5.3355265990    9.2762848290    0.0000000000
1      0.0000000000    9.2762848290    0.0000000000     -1.8347064230    9.2762848290   10.2476691920
1     -1.8347064230    9.2762848290   10.2476691920      3.5008201760    9.2762848290   10.2476691920
1      5.3355265990    0.0000000000    0.0000000000      5.3355265990    9.2762848290    0.0000000000
1      5.3355265990    0.0000000000    0.0000000000      3.5008201760    0.0000000000   10.2476691920
1      3.5008201760    0.0000000000   10.2476691920      3.5008201760    9.2762848290   10.2476691920
1      5.3355265990    9.2762848290    0.0000000000      3.5008201760    9.2762848290   10.2476691920
