 INFO
nunit      1    1    1
unit   cell
celltype   primcell
shape   parapipedal
 END_INFO
 DIM-GROUP
           3           1
 PRIMVEC
    5.3362569510    0.0000000000    0.0000000000
    0.0000000000    9.2777128370    0.0000000000
   -1.8137535590    0.0000000000   10.2457915770
 CONVVEC
    5.3362569510    0.0000000000    0.0000000000
    0.0000000000    9.2777128370    0.0000000000
   -1.8137535590    0.0000000000   10.2457915770
 PRIMCOORD
          44           1
 19      0.0000000000     4.5342595860     0.0000000000     0.0000000000    -0.0007262200     0.0000000000
 19      2.6681282440     0.0862045740     0.0000000000     0.0000000000     0.0006013600     0.0000000000
 12     -0.9068761050     0.0370929950     5.1228953640     0.0000000000    -0.0003175400     0.0000000000
 12     -0.9068761050     3.0829882740     5.1228953640     0.0000000000    -0.0001403800     0.0000000000
 12     -0.9068761050     6.1779607150     5.1228953640     0.0000000000     0.0003478000     0.0000000000
 12      1.7612521390     7.7471091490     5.1228953640     0.0000000000     0.0003291500     0.0000000000
 12      1.7612521390     1.5718945420     5.1228953640     0.0000000000    -0.0000612800     0.0000000000
 26      1.7612521390     4.5558015770     5.1228953640     0.0000000000     0.0003629600     0.0000000000
 14      0.0405675970     1.5282682170     2.3181911020    -0.0001073000     0.0000092100     0.0000261900
 14      3.4819364300     1.5282682170     7.9275999340     0.0001073000     0.0000092100    -0.0000261900
 14      3.5875377740     7.7403106700     7.8641396160     0.0000971200     0.0000239900     0.0004446600
 14     -0.0650336020     7.7403106700     2.3816512670    -0.0000971200     0.0000239900    -0.0004446600
 14      2.6036998620     6.1947250760     2.3652351780    -0.0001851700     0.0000556900    -0.0002636000
 14      0.9188043890     6.1947250760     7.8805557040     0.0001851700     0.0000556900     0.0002636000
 13      0.8076994930     3.0740858740     7.9044538580     0.0002664000     0.0000182600     0.0000802600
 13      2.7148047600     3.0740858740     2.3413370150    -0.0002664000     0.0000182600    -0.0000802600
  8     -0.0162229820     1.5122216210     3.9529237140     0.0001878600     0.0000196200    -0.0000812300
  8      3.5387269950     1.5122216210     6.2928667080    -0.0001878600     0.0000196200     0.0000812300
  8      3.5580188220     7.7326728610     6.2426688650     0.0003516300    -0.0002965600     0.0004249600
  8     -0.0355146230     7.7326728610     4.0031218640    -0.0003516300    -0.0002965600    -0.0004249600
  8      2.6471623400     6.2521880890     3.9918167470    -0.0000283800     0.0003527400    -0.0002074700
  8      0.8753418880     6.2521880890     6.2539733670     0.0000283800     0.0003527400     0.0002074700
  8      0.8225102110     3.0425263630     6.1648411870    -0.0002802900    -0.0002720600     0.0001256500
  8      2.6999941210     3.0425263630     4.0809492450     0.0002802900    -0.0002720600    -0.0001256500
  8      1.5081854080     1.9275767330     1.7333938160     0.0001389600    -0.0002832000    -0.0000986600
  8      2.0143188430     1.9275767330     8.5123970670    -0.0001389600    -0.0002832000     0.0000986600
  8      5.0574640770     9.2493420180     1.7628353050     0.0000189000     0.0001238100     0.0000954800
  8     -1.5349599910     9.2493420180     8.4829557320    -0.0000189000     0.0001238100    -0.0000954800
  8      2.1620767560     7.1483087760     8.4676072770    -0.0002527300     0.0004954700    -0.0000943600
  8      1.3604275500     7.1483087760     1.7781832980     0.0002527300     0.0004954700     0.0000943600
  8      4.0267683800     6.8359390020     1.7653388460     0.0000015700    -0.0002774200     0.0002245600
  8     -0.5042640210     6.8359390020     8.4804518830    -0.0000015700    -0.0002774200    -0.0002245600
  8      2.4029649830     4.7172656210     1.7308660500    -0.0004571100     0.0000565300    -0.0004836000
  8      1.1195394280     4.7172656210     8.5149248320     0.0004571100     0.0000565300     0.0004836000
  8     -0.7380296070     2.5251852430     8.5701181720     0.0002283200    -0.0001548100    -0.0001313600
  8      4.2605338590     2.5251852430     1.6756727100    -0.0002283200    -0.0001548100     0.0001313600
  8     -0.0731776050     4.6716475020     4.0461520280    -0.0002435300    -0.0000665300     0.0000359300
  8      3.5956818200     4.6716475020     6.1996383930     0.0002435300    -0.0000665300    -0.0000359300
  8      2.6600202450     9.2715572960     4.0968035250    -0.0005780100     0.0001214100     0.0001031500
  8      0.8624840860     9.2715572960     6.1489869070     0.0005780100     0.0001214100    -0.0001031500
  1      0.0297003950     4.6084786230     3.0870798610    -0.0000781900     0.0001476100     0.0001551200
  1      3.4928039390     4.6084786230     7.1587105600     0.0000781900     0.0001476100    -0.0001551200
  1      2.6434780400     0.1263563420     3.1394329060    -0.0000434200    -0.0002716900     0.0003951500
  1      0.8790261330     0.1263563420     7.1063575150     0.0000434200    -0.0002716900    -0.0003951500
 CONVCOORD
          44           1
 19      0.0000000000     4.5342595860     0.0000000000
 19      2.6681282440     0.0862045740     0.0000000000
 12     -0.9068761050     0.0370929950     5.1228953640
 12     -0.9068761050     3.0829882740     5.1228953640
 12     -0.9068761050     6.1779607150     5.1228953640
 12      1.7612521390     7.7471091490     5.1228953640
 12      1.7612521390     1.5718945420     5.1228953640
 26      1.7612521390     4.5558015770     5.1228953640
 14      0.0405675970     1.5282682170     2.3181911020
 14      3.4819364300     1.5282682170     7.9275999340
 14      3.5875377740     7.7403106700     7.8641396160
 14     -0.0650336020     7.7403106700     2.3816512670
 14      2.6036998620     6.1947250760     2.3652351780
 14      0.9188043890     6.1947250760     7.8805557040
 13      0.8076994930     3.0740858740     7.9044538580
 13      2.7148047600     3.0740858740     2.3413370150
  8     -0.0162229820     1.5122216210     3.9529237140
  8      3.5387269950     1.5122216210     6.2928667080
  8      3.5580188220     7.7326728610     6.2426688650
  8     -0.0355146230     7.7326728610     4.0031218640
  8      2.6471623400     6.2521880890     3.9918167470
  8      0.8753418880     6.2521880890     6.2539733670
  8      0.8225102110     3.0425263630     6.1648411870
  8      2.6999941210     3.0425263630     4.0809492450
  8      1.5081854080     1.9275767330     1.7333938160
  8      2.0143188430     1.9275767330     8.5123970670
  8     -0.2787928740     9.2493420180     1.7628353050
  8     -1.5349599910     9.2493420180     8.4829557320
  8      2.1620767560     7.1483087760     8.4676072770
  8      1.3604275500     7.1483087760     1.7781832980
  8      4.0267683800     6.8359390020     1.7653388460
  8     -0.5042640210     6.8359390020     8.4804518830
  8      2.4029649830     4.7172656210     1.7308660500
  8      1.1195394280     4.7172656210     8.5149248320
  8     -0.7380296070     2.5251852430     8.5701181720
  8      4.2605338590     2.5251852430     1.6756727100
  8     -0.0731776050     4.6716475020     4.0461520280
  8      3.5956818200     4.6716475020     6.1996383930
  8      2.6600202450     9.2715572960     4.0968035250
  8      0.8624840860     9.2715572960     6.1489869070
  1      0.0297003950     4.6084786230     3.0870798610
  1      3.4928039390     4.6084786230     7.1587105600
  1      2.6434780400     0.1263563420     3.1394329060
  1      0.8790261330     0.1263563420     7.1063575150
 RECIP-PRIMVEC
    0.1873972729   -0.0000000000    0.0331738615

    0.0000000000    0.1077851856   -0.0000000000

    0.0000000000    0.0000000000    0.0976010484

 RECIP-CONVVEC
    0.1873972729   -0.0000000000    0.0331738615

    0.0000000000    0.1077851856   -0.0000000000

    0.0000000000    0.0000000000    0.0976010484

 WIGNER-SEITZ-PRIMCELL
           4
 -0.2668128E+01 -0.4638856E+01 -0.4811112E+01  -0.3251221E+00  0.0000000E+00 -0.9456721E+00
 -0.2668128E+01  0.4638856E+01 -0.4811112E+01  -0.3251221E+00  0.0000000E+00 -0.9456721E+00
 -0.8543749E+00  0.4638856E+01 -0.5434680E+01  -0.3251221E+00  0.0000000E+00 -0.9456721E+00
 -0.8543749E+00 -0.4638856E+01 -0.5434680E+01  -0.3251221E+00  0.0000000E+00 -0.9456721E+00
           4
 -0.2668128E+01  0.4638856E+01 -0.4811112E+01  -0.1000000E+01 -0.4786624E-16  0.4418289E-32
 -0.2668128E+01 -0.4638856E+01 -0.4811112E+01  -0.1000000E+01 -0.4786624E-16  0.4418289E-32
 -0.2668128E+01 -0.4638856E+01  0.4811112E+01  -0.1000000E+01 -0.4786624E-16  0.4418289E-32
 -0.2668128E+01  0.4638856E+01  0.4811112E+01  -0.1000000E+01 -0.4786624E-16  0.4418289E-32
           6
  0.8543749E+00 -0.4638856E+01  0.5434680E+01   0.2684843E-15 -0.1000000E+01 -0.1048174E-15
 -0.2668128E+01 -0.4638856E+01  0.4811112E+01   0.2684843E-15 -0.1000000E+01 -0.1048174E-15
 -0.2668128E+01 -0.4638856E+01 -0.4811112E+01   0.2684843E-15 -0.1000000E+01 -0.1048174E-15
 -0.8543749E+00 -0.4638856E+01 -0.5434680E+01   0.2684843E-15 -0.1000000E+01 -0.1048174E-15
  0.2668128E+01 -0.4638856E+01 -0.4811112E+01   0.2684843E-15 -0.1000000E+01 -0.1048174E-15
  0.2668128E+01 -0.4638856E+01  0.4811112E+01   0.2684843E-15 -0.1000000E+01 -0.1048174E-15
           4
  0.2668128E+01  0.4638856E+01 -0.4811112E+01   0.1743140E+00 -0.1070453E-15 -0.9846901E+00
  0.2668128E+01 -0.4638856E+01 -0.4811112E+01   0.1743140E+00 -0.1070453E-15 -0.9846901E+00
 -0.8543749E+00 -0.4638856E+01 -0.5434680E+01   0.1743140E+00 -0.1070453E-15 -0.9846901E+00
 -0.8543749E+00  0.4638856E+01 -0.5434680E+01   0.1743140E+00 -0.1070453E-15 -0.9846901E+00
           4
 -0.2668128E+01  0.4638856E+01  0.4811112E+01  -0.1743140E+00  0.2140905E-15  0.9846901E+00
 -0.2668128E+01 -0.4638856E+01  0.4811112E+01  -0.1743140E+00  0.2140905E-15  0.9846901E+00
  0.8543749E+00 -0.4638856E+01  0.5434680E+01  -0.1743140E+00  0.2140905E-15  0.9846901E+00
  0.8543749E+00  0.4638856E+01  0.5434680E+01  -0.1743140E+00  0.2140905E-15  0.9846901E+00
           6
  0.2668128E+01  0.4638856E+01 -0.4811112E+01  -0.1664422E-15  0.1000000E+01  0.1601513E-14
 -0.8543749E+00  0.4638856E+01 -0.5434680E+01  -0.1664422E-15  0.1000000E+01  0.1601513E-14
 -0.2668128E+01  0.4638856E+01 -0.4811112E+01  -0.1664422E-15  0.1000000E+01  0.1601513E-14
 -0.2668128E+01  0.4638856E+01  0.4811112E+01  -0.1664422E-15  0.1000000E+01  0.1601513E-14
  0.8543749E+00  0.4638856E+01  0.5434680E+01  -0.1664422E-15  0.1000000E+01  0.1601513E-14
  0.2668128E+01  0.4638856E+01  0.4811112E+01  -0.1664422E-15  0.1000000E+01  0.1601513E-14
           4
  0.2668128E+01  0.4638856E+01  0.4811112E+01   0.1000000E+01  0.4786624E-16 -0.4418289E-32
  0.2668128E+01 -0.4638856E+01  0.4811112E+01   0.1000000E+01  0.4786624E-16 -0.4418289E-32
  0.2668128E+01 -0.4638856E+01 -0.4811112E+01   0.1000000E+01  0.4786624E-16 -0.4418289E-32
  0.2668128E+01  0.4638856E+01 -0.4811112E+01   0.1000000E+01  0.4786624E-16 -0.4418289E-32
           4
  0.8543749E+00 -0.4638856E+01  0.5434680E+01   0.3251221E+00  0.1996556E-15  0.9456721E+00
  0.2668128E+01 -0.4638856E+01  0.4811112E+01   0.3251221E+00  0.1996556E-15  0.9456721E+00
  0.2668128E+01  0.4638856E+01  0.4811112E+01   0.3251221E+00  0.1996556E-15  0.9456721E+00
  0.8543749E+00  0.4638856E+01  0.5434680E+01   0.3251221E+00  0.1996556E-15  0.9456721E+00
 WIGNER-SEITZ-PRIMCELL_END
 WIGNER-SEITZ-CONVCELL
           4
 -0.2668128E+01 -0.4638856E+01 -0.4811112E+01  -0.3251221E+00  0.0000000E+00 -0.9456721E+00
 -0.2668128E+01  0.4638856E+01 -0.4811112E+01  -0.3251221E+00  0.0000000E+00 -0.9456721E+00
 -0.8543749E+00  0.4638856E+01 -0.5434680E+01  -0.3251221E+00  0.0000000E+00 -0.9456721E+00
 -0.8543749E+00 -0.4638856E+01 -0.5434680E+01  -0.3251221E+00  0.0000000E+00 -0.9456721E+00
           4
 -0.2668128E+01  0.4638856E+01 -0.4811112E+01  -0.1000000E+01 -0.4786624E-16  0.4418289E-32
 -0.2668128E+01 -0.4638856E+01 -0.4811112E+01  -0.1000000E+01 -0.4786624E-16  0.4418289E-32
 -0.2668128E+01 -0.4638856E+01  0.4811112E+01  -0.1000000E+01 -0.4786624E-16  0.4418289E-32
 -0.2668128E+01  0.4638856E+01  0.4811112E+01  -0.1000000E+01 -0.4786624E-16  0.4418289E-32
           6
  0.8543749E+00 -0.4638856E+01  0.5434680E+01   0.2684843E-15 -0.1000000E+01 -0.1048174E-15
 -0.2668128E+01 -0.4638856E+01  0.4811112E+01   0.2684843E-15 -0.1000000E+01 -0.1048174E-15
 -0.2668128E+01 -0.4638856E+01 -0.4811112E+01   0.2684843E-15 -0.1000000E+01 -0.1048174E-15
 -0.8543749E+00 -0.4638856E+01 -0.5434680E+01   0.2684843E-15 -0.1000000E+01 -0.1048174E-15
  0.2668128E+01 -0.4638856E+01 -0.4811112E+01   0.2684843E-15 -0.1000000E+01 -0.1048174E-15
  0.2668128E+01 -0.4638856E+01  0.4811112E+01   0.2684843E-15 -0.1000000E+01 -0.1048174E-15
           4
  0.2668128E+01  0.4638856E+01 -0.4811112E+01   0.1743140E+00 -0.1070453E-15 -0.9846901E+00
  0.2668128E+01 -0.4638856E+01 -0.4811112E+01   0.1743140E+00 -0.1070453E-15 -0.9846901E+00
 -0.8543749E+00 -0.4638856E+01 -0.5434680E+01   0.1743140E+00 -0.1070453E-15 -0.9846901E+00
 -0.8543749E+00  0.4638856E+01 -0.5434680E+01   0.1743140E+00 -0.1070453E-15 -0.9846901E+00
           4
 -0.2668128E+01  0.4638856E+01  0.4811112E+01  -0.1743140E+00  0.2140905E-15  0.9846901E+00
 -0.2668128E+01 -0.4638856E+01  0.4811112E+01  -0.1743140E+00  0.2140905E-15  0.9846901E+00
  0.8543749E+00 -0.4638856E+01  0.5434680E+01  -0.1743140E+00  0.2140905E-15  0.9846901E+00
  0.8543749E+00  0.4638856E+01  0.5434680E+01  -0.1743140E+00  0.2140905E-15  0.9846901E+00
           6
  0.2668128E+01  0.4638856E+01 -0.4811112E+01  -0.1664422E-15  0.1000000E+01  0.1601513E-14
 -0.8543749E+00  0.4638856E+01 -0.5434680E+01  -0.1664422E-15  0.1000000E+01  0.1601513E-14
 -0.2668128E+01  0.4638856E+01 -0.4811112E+01  -0.1664422E-15  0.1000000E+01  0.1601513E-14
 -0.2668128E+01  0.4638856E+01  0.4811112E+01  -0.1664422E-15  0.1000000E+01  0.1601513E-14
  0.8543749E+00  0.4638856E+01  0.5434680E+01  -0.1664422E-15  0.1000000E+01  0.1601513E-14
  0.2668128E+01  0.4638856E+01  0.4811112E+01  -0.1664422E-15  0.1000000E+01  0.1601513E-14
           4
  0.2668128E+01  0.4638856E+01  0.4811112E+01   0.1000000E+01  0.4786624E-16 -0.4418289E-32
  0.2668128E+01 -0.4638856E+01  0.4811112E+01   0.1000000E+01  0.4786624E-16 -0.4418289E-32
  0.2668128E+01 -0.4638856E+01 -0.4811112E+01   0.1000000E+01  0.4786624E-16 -0.4418289E-32
  0.2668128E+01  0.4638856E+01 -0.4811112E+01   0.1000000E+01  0.4786624E-16 -0.4418289E-32
           4
  0.8543749E+00 -0.4638856E+01  0.5434680E+01   0.3251221E+00  0.1996556E-15  0.9456721E+00
  0.2668128E+01 -0.4638856E+01  0.4811112E+01   0.3251221E+00  0.1996556E-15  0.9456721E+00
  0.2668128E+01  0.4638856E+01  0.4811112E+01   0.3251221E+00  0.1996556E-15  0.9456721E+00
  0.8543749E+00  0.4638856E+01  0.5434680E+01   0.3251221E+00  0.1996556E-15  0.9456721E+00
 WIGNER-SEITZ-CONVCELL_END
 BRILLOUIN-ZONE-PRIMCELL
           4
  0.9940122E-01 -0.5389259E-01 -0.1562666E-01   0.9456721E+00  0.1146919E-15 -0.3251221E+00
  0.8799605E-01 -0.5389259E-01 -0.4880052E-01   0.9456721E+00  0.1146919E-15 -0.3251221E+00
  0.8799605E-01  0.5389259E-01 -0.4880052E-01   0.9456721E+00  0.1146919E-15 -0.3251221E+00
  0.9940122E-01  0.5389259E-01 -0.1562666E-01   0.9456721E+00  0.1146919E-15 -0.3251221E+00
           4
 -0.8799605E-01 -0.5389259E-01 -0.4880052E-01  -0.4572440E-16 -0.9144880E-16 -0.1000000E+01
 -0.8799605E-01  0.5389259E-01 -0.4880052E-01  -0.4572440E-16 -0.9144880E-16 -0.1000000E+01
  0.8799605E-01  0.5389259E-01 -0.4880052E-01  -0.4572440E-16 -0.9144880E-16 -0.1000000E+01
  0.8799605E-01 -0.5389259E-01 -0.4880052E-01  -0.4572440E-16 -0.9144880E-16 -0.1000000E+01
           6
  0.8799605E-01 -0.5389259E-01  0.4880052E-01   0.0000000E+00 -0.1000000E+01 -0.2971263E-15
 -0.8799605E-01 -0.5389259E-01  0.4880052E-01   0.0000000E+00 -0.1000000E+01 -0.2971263E-15
 -0.9940122E-01 -0.5389259E-01  0.1562666E-01   0.0000000E+00 -0.1000000E+01 -0.2971263E-15
 -0.8799605E-01 -0.5389259E-01 -0.4880052E-01   0.0000000E+00 -0.1000000E+01 -0.2971263E-15
  0.8799605E-01 -0.5389259E-01 -0.4880052E-01   0.0000000E+00 -0.1000000E+01 -0.2971263E-15
  0.9940122E-01 -0.5389259E-01 -0.1562666E-01   0.0000000E+00 -0.1000000E+01 -0.2971263E-15
           4
  0.8799605E-01  0.5389259E-01  0.4880052E-01   0.9846901E+00  0.0000000E+00  0.1743140E+00
  0.8799605E-01 -0.5389259E-01  0.4880052E-01   0.9846901E+00  0.0000000E+00  0.1743140E+00
  0.9940122E-01 -0.5389259E-01 -0.1562666E-01   0.9846901E+00  0.0000000E+00  0.1743140E+00
  0.9940122E-01  0.5389259E-01 -0.1562666E-01   0.9846901E+00  0.0000000E+00  0.1743140E+00
           4
 -0.9940122E-01  0.5389259E-01  0.1562666E-01  -0.9846901E+00  0.4612471E-16 -0.1743140E+00
 -0.8799605E-01  0.5389259E-01 -0.4880052E-01  -0.9846901E+00  0.4612471E-16 -0.1743140E+00
 -0.8799605E-01 -0.5389259E-01 -0.4880052E-01  -0.9846901E+00  0.4612471E-16 -0.1743140E+00
 -0.9940122E-01 -0.5389259E-01  0.1562666E-01  -0.9846901E+00  0.4612471E-16 -0.1743140E+00
           6
  0.9940122E-01  0.5389259E-01 -0.1562666E-01  -0.0000000E+00  0.1000000E+01 -0.0000000E+00
  0.8799605E-01  0.5389259E-01 -0.4880052E-01  -0.0000000E+00  0.1000000E+01 -0.0000000E+00
 -0.8799605E-01  0.5389259E-01 -0.4880052E-01  -0.0000000E+00  0.1000000E+01 -0.0000000E+00
 -0.9940122E-01  0.5389259E-01  0.1562666E-01  -0.0000000E+00  0.1000000E+01 -0.0000000E+00
 -0.8799605E-01  0.5389259E-01  0.4880052E-01  -0.0000000E+00  0.1000000E+01 -0.0000000E+00
  0.8799605E-01  0.5389259E-01  0.4880052E-01  -0.0000000E+00  0.1000000E+01 -0.0000000E+00
           4
  0.8799605E-01 -0.5389259E-01  0.4880052E-01  -0.0000000E+00 -0.0000000E+00  0.1000000E+01
  0.8799605E-01  0.5389259E-01  0.4880052E-01  -0.0000000E+00 -0.0000000E+00  0.1000000E+01
 -0.8799605E-01  0.5389259E-01  0.4880052E-01  -0.0000000E+00 -0.0000000E+00  0.1000000E+01
 -0.8799605E-01 -0.5389259E-01  0.4880052E-01  -0.0000000E+00 -0.0000000E+00  0.1000000E+01
           4
 -0.9940122E-01  0.5389259E-01  0.1562666E-01  -0.9456721E+00  0.1720470E-15  0.3251221E+00
 -0.9940122E-01 -0.5389259E-01  0.1562666E-01  -0.9456721E+00  0.1720470E-15  0.3251221E+00
 -0.8799605E-01 -0.5389259E-01  0.4880052E-01  -0.9456721E+00  0.1720470E-15  0.3251221E+00
 -0.8799605E-01  0.5389259E-01  0.4880052E-01  -0.9456721E+00  0.1720470E-15  0.3251221E+00
 BRILLOUIN-ZONE-PRIMCELL_END
 BRILLOUIN-ZONE-CONVCELL
           4
  0.9940122E-01 -0.5389259E-01 -0.1562666E-01   0.9456721E+00  0.1146919E-15 -0.3251221E+00
  0.8799605E-01 -0.5389259E-01 -0.4880052E-01   0.9456721E+00  0.1146919E-15 -0.3251221E+00
  0.8799605E-01  0.5389259E-01 -0.4880052E-01   0.9456721E+00  0.1146919E-15 -0.3251221E+00
  0.9940122E-01  0.5389259E-01 -0.1562666E-01   0.9456721E+00  0.1146919E-15 -0.3251221E+00
           4
 -0.8799605E-01 -0.5389259E-01 -0.4880052E-01  -0.4572440E-16 -0.9144880E-16 -0.1000000E+01
 -0.8799605E-01  0.5389259E-01 -0.4880052E-01  -0.4572440E-16 -0.9144880E-16 -0.1000000E+01
  0.8799605E-01  0.5389259E-01 -0.4880052E-01  -0.4572440E-16 -0.9144880E-16 -0.1000000E+01
  0.8799605E-01 -0.5389259E-01 -0.4880052E-01  -0.4572440E-16 -0.9144880E-16 -0.1000000E+01
           6
  0.8799605E-01 -0.5389259E-01  0.4880052E-01   0.0000000E+00 -0.1000000E+01 -0.2971263E-15
 -0.8799605E-01 -0.5389259E-01  0.4880052E-01   0.0000000E+00 -0.1000000E+01 -0.2971263E-15
 -0.9940122E-01 -0.5389259E-01  0.1562666E-01   0.0000000E+00 -0.1000000E+01 -0.2971263E-15
 -0.8799605E-01 -0.5389259E-01 -0.4880052E-01   0.0000000E+00 -0.1000000E+01 -0.2971263E-15
  0.8799605E-01 -0.5389259E-01 -0.4880052E-01   0.0000000E+00 -0.1000000E+01 -0.2971263E-15
  0.9940122E-01 -0.5389259E-01 -0.1562666E-01   0.0000000E+00 -0.1000000E+01 -0.2971263E-15
           4
  0.8799605E-01  0.5389259E-01  0.4880052E-01   0.9846901E+00  0.0000000E+00  0.1743140E+00
  0.8799605E-01 -0.5389259E-01  0.4880052E-01   0.9846901E+00  0.0000000E+00  0.1743140E+00
  0.9940122E-01 -0.5389259E-01 -0.1562666E-01   0.9846901E+00  0.0000000E+00  0.1743140E+00
  0.9940122E-01  0.5389259E-01 -0.1562666E-01   0.9846901E+00  0.0000000E+00  0.1743140E+00
           4
 -0.9940122E-01  0.5389259E-01  0.1562666E-01  -0.9846901E+00  0.4612471E-16 -0.1743140E+00
 -0.8799605E-01  0.5389259E-01 -0.4880052E-01  -0.9846901E+00  0.4612471E-16 -0.1743140E+00
 -0.8799605E-01 -0.5389259E-01 -0.4880052E-01  -0.9846901E+00  0.4612471E-16 -0.1743140E+00
 -0.9940122E-01 -0.5389259E-01  0.1562666E-01  -0.9846901E+00  0.4612471E-16 -0.1743140E+00
           6
  0.9940122E-01  0.5389259E-01 -0.1562666E-01  -0.0000000E+00  0.1000000E+01 -0.0000000E+00
  0.8799605E-01  0.5389259E-01 -0.4880052E-01  -0.0000000E+00  0.1000000E+01 -0.0000000E+00
 -0.8799605E-01  0.5389259E-01 -0.4880052E-01  -0.0000000E+00  0.1000000E+01 -0.0000000E+00
 -0.9940122E-01  0.5389259E-01  0.1562666E-01  -0.0000000E+00  0.1000000E+01 -0.0000000E+00
 -0.8799605E-01  0.5389259E-01  0.4880052E-01  -0.0000000E+00  0.1000000E+01 -0.0000000E+00
  0.8799605E-01  0.5389259E-01  0.4880052E-01  -0.0000000E+00  0.1000000E+01 -0.0000000E+00
           4
  0.8799605E-01 -0.5389259E-01  0.4880052E-01  -0.0000000E+00 -0.0000000E+00  0.1000000E+01
  0.8799605E-01  0.5389259E-01  0.4880052E-01  -0.0000000E+00 -0.0000000E+00  0.1000000E+01
 -0.8799605E-01  0.5389259E-01  0.4880052E-01  -0.0000000E+00 -0.0000000E+00  0.1000000E+01
 -0.8799605E-01 -0.5389259E-01  0.4880052E-01  -0.0000000E+00 -0.0000000E+00  0.1000000E+01
           4
 -0.9940122E-01  0.5389259E-01  0.1562666E-01  -0.9456721E+00  0.1720470E-15  0.3251221E+00
 -0.9940122E-01 -0.5389259E-01  0.1562666E-01  -0.9456721E+00  0.1720470E-15  0.3251221E+00
 -0.8799605E-01 -0.5389259E-01  0.4880052E-01  -0.9456721E+00  0.1720470E-15  0.3251221E+00
 -0.8799605E-01  0.5389259E-01  0.4880052E-01  -0.9456721E+00  0.1720470E-15  0.3251221E+00
 BRILLOUIN-ZONE-CONVCELL_END
 ATOMS
   19    0.0000000000    4.5342595860    0.0000000000    0.0000000000   -0.0007262200    0.0000000000
   19    2.6681282440    0.0862045740    0.0000000000    0.0000000000    0.0006013600    0.0000000000
   12   -0.9068761050    0.0370929950    5.1228953640    0.0000000000   -0.0003175400    0.0000000000
   12   -0.9068761050    3.0829882740    5.1228953640    0.0000000000   -0.0001403800    0.0000000000
   12   -0.9068761050    6.1779607150    5.1228953640    0.0000000000    0.0003478000    0.0000000000
   12    1.7612521390    7.7471091490    5.1228953640    0.0000000000    0.0003291500    0.0000000000
   12    1.7612521390    1.5718945420    5.1228953640    0.0000000000   -0.0000612800    0.0000000000
   26    1.7612521390    4.5558015770    5.1228953640    0.0000000000    0.0003629600    0.0000000000
   14    0.0405675970    1.5282682170    2.3181911020   -0.0001073000    0.0000092100    0.0000261900
   14    3.4819364300    1.5282682170    7.9275999340    0.0001073000    0.0000092100   -0.0000261900
   14    3.5875377740    7.7403106700    7.8641396160    0.0000971200    0.0000239900    0.0004446600
   14   -0.0650336020    7.7403106700    2.3816512670   -0.0000971200    0.0000239900   -0.0004446600
   14    2.6036998620    6.1947250760    2.3652351780   -0.0001851700    0.0000556900   -0.0002636000
   14    0.9188043890    6.1947250760    7.8805557040    0.0001851700    0.0000556900    0.0002636000
   13    0.8076994930    3.0740858740    7.9044538580    0.0002664000    0.0000182600    0.0000802600
   13    2.7148047600    3.0740858740    2.3413370150   -0.0002664000    0.0000182600   -0.0000802600
    8   -0.0162229820    1.5122216210    3.9529237140    0.0001878600    0.0000196200   -0.0000812300
    8    3.5387269950    1.5122216210    6.2928667080   -0.0001878600    0.0000196200    0.0000812300
    8    3.5580188220    7.7326728610    6.2426688650    0.0003516300   -0.0002965600    0.0004249600
    8   -0.0355146230    7.7326728610    4.0031218640   -0.0003516300   -0.0002965600   -0.0004249600
    8    2.6471623400    6.2521880890    3.9918167470   -0.0000283800    0.0003527400   -0.0002074700
    8    0.8753418880    6.2521880890    6.2539733670    0.0000283800    0.0003527400    0.0002074700
    8    0.8225102110    3.0425263630    6.1648411870   -0.0002802900   -0.0002720600    0.0001256500
    8    2.6999941210    3.0425263630    4.0809492450    0.0002802900   -0.0002720600   -0.0001256500
    8    1.5081854080    1.9275767330    1.7333938160    0.0001389600   -0.0002832000   -0.0000986600
    8    2.0143188430    1.9275767330    8.5123970670   -0.0001389600   -0.0002832000    0.0000986600
    8   -0.2787928740    9.2493420180    1.7628353050    0.0000189000    0.0001238100    0.0000954800
    8    2.1620767560    7.1483087760    8.4676072770   -0.0002527300    0.0004954700   -0.0000943600
    8    1.3604275500    7.1483087760    1.7781832980    0.0002527300    0.0004954700    0.0000943600
    8    4.0267683800    6.8359390020    1.7653388460    0.0000015700   -0.0002774200    0.0002245600
    8   -0.5042640210    6.8359390020    8.4804518830   -0.0000015700   -0.0002774200   -0.0002245600
    8    2.4029649830    4.7172656210    1.7308660500   -0.0004571100    0.0000565300   -0.0004836000
    8    1.1195394280    4.7172656210    8.5149248320    0.0004571100    0.0000565300    0.0004836000
    8   -0.7380296070    2.5251852430    8.5701181720    0.0002283200   -0.0001548100   -0.0001313600
    8    4.2605338590    2.5251852430    1.6756727100   -0.0002283200   -0.0001548100    0.0001313600
    8   -0.0731776050    4.6716475020    4.0461520280   -0.0002435300   -0.0000665300    0.0000359300
    8    3.5956818200    4.6716475020    6.1996383930    0.0002435300   -0.0000665300   -0.0000359300
    8    2.6600202450    9.2715572960    4.0968035250   -0.0005780100    0.0001214100    0.0001031500
    8    0.8624840860    9.2715572960    6.1489869070    0.0005780100    0.0001214100   -0.0001031500
    1    0.0297003950    4.6084786230    3.0870798610   -0.0000781900    0.0001476100    0.0001551200
    1    3.4928039390    4.6084786230    7.1587105600    0.0000781900    0.0001476100   -0.0001551200
    1    2.6434780400    0.1263563420    3.1394329060   -0.0000434200   -0.0002716900    0.0003951500
    1    0.8790261330    0.1263563420    7.1063575150    0.0000434200   -0.0002716900   -0.0003951500
   19   -1.8137535590    4.5342595860   10.2457915770    0.0000000000   -0.0007262200    0.0000000000
   19    0.8543746850    0.0862045740   10.2457915770    0.0000000000    0.0006013600    0.0000000000
   19    5.3362569510    4.5342595860    0.0000000000    0.0000000000   -0.0007262200    0.0000000000
   12    4.4293808460    0.0370929950    5.1228953640    0.0000000000   -0.0003175400    0.0000000000
   12    4.4293808460    3.0829882740    5.1228953640    0.0000000000   -0.0001403800    0.0000000000
   12    4.4293808460    6.1779607150    5.1228953640    0.0000000000    0.0003478000    0.0000000000
    8    3.8012969600    9.2493420180    8.4829557320   -0.0000189000    0.0001238100   -0.0000954800
   19    3.5225033920    4.5342595860   10.2457915770    0.0000000000   -0.0007262200    0.0000000000
 FRAMES
1      0.0000000000    0.0000000000    0.0000000000      5.3362569510    0.0000000000    0.0000000000
1      0.0000000000    0.0000000000    0.0000000000      0.0000000000    9.2777128370    0.0000000000
1      0.0000000000    0.0000000000    0.0000000000     -1.8137535590    0.0000000000   10.2457915770
1     -1.8137535590    0.0000000000   10.2457915770      3.5225033920    0.0000000000   10.2457915770
1     -1.8137535590    0.0000000000   10.2457915770     -1.8137535590    9.2777128370   10.2457915770
1      0.0000000000    9.2777128370    0.0000000000      5.3362569510    9.2777128370    0.0000000000
1      0.0000000000    9.2777128370    0.0000000000     -1.8137535590    9.2777128370   10.2457915770
1     -1.8137535590    9.2777128370   10.2457915770      3.5225033920    9.2777128370   10.2457915770
1      5.3362569510    0.0000000000    0.0000000000      5.3362569510    9.2777128370    0.0000000000
1      5.3362569510    0.0000000000    0.0000000000      3.5225033920    0.0000000000   10.2457915770
1      3.5225033920    0.0000000000   10.2457915770      3.5225033920    9.2777128370   10.2457915770
1      5.3362569510    9.2777128370    0.0000000000      3.5225033920    9.2777128370   10.2457915770
