 INFO
nunit      1    1    1
unit   cell
celltype   primcell
shape   parapipedal
 END_INFO
 DIM-GROUP
           3           1
 PRIMVEC
    5.3061585470    0.0000000000    0.0000000000
    0.0000000000    9.1790689650    0.0000000000
   -1.8569405730    0.0000000000   10.2621215620
 CONVVEC
    5.3061585470    0.0000000000    0.0000000000
    0.0000000000    9.1790689650    0.0000000000
   -1.8569405730    0.0000000000   10.2621215620
 PRIMCOORD
          44           1
 19      0.0000000000     4.5637907620     0.0000000000     0.0000000000     0.0000945600     0.0000000000
 19      2.6530799740     0.0487847790     0.0000000000     0.0000000000    -0.0000786900     0.0000000000
 12     -0.9284710970     0.0818859300     5.1310604830     0.0000000000    -0.0000587200     0.0000000000
 12     -0.9284710970     6.0731862210     5.1310604830     0.0000000000     0.0001459900     0.0000000000
 12      1.7246082450     4.5004441980     5.1310604830     0.0000000000    -0.0000320300     0.0000000000
 12      1.7246082450     7.6635735890     5.1310604830     0.0000000000    -0.0000386900     0.0000000000
 12      1.7246082450     1.6021202240     5.1310604830     0.0000000000    -0.0001402100     0.0000000000
 14      0.0442816140     1.5434134620     2.3351092390    -0.0000719600     0.0000101100    -0.0000151200
 14      3.4049348160     1.5434134620     7.9270124750     0.0000719600     0.0000101100     0.0000151200
 14      3.5465799930     7.6693134320     7.8581643580     0.0000355200     0.0000033200     0.0000641700
 14     -0.0973633320     7.6693134320     2.4039567510    -0.0000355200     0.0000033200    -0.0000641700
 14      2.5517774430     6.1229610930     2.3727024150    -0.0000250500     0.0000548900    -0.0000149500
 14      0.8974393340     6.1229610930     7.8894186940     0.0000250500     0.0000548900     0.0000149500
 13      0.7364307090     3.0488530160     7.9188954960     0.0001331900    -0.0000156200     0.0000385600
 13      2.7127857220     3.0488530160     2.3432257670    -0.0001331900    -0.0000156200    -0.0000385600
  8     -0.0406004210     1.5441283970     3.9722704050    -0.0000152700    -0.0000256700     0.0000322200
  8      3.4898167730     1.5441283970     6.2898508590     0.0000152700    -0.0000256700    -0.0000322200
  8      3.5167161920     7.6399697880     6.2393458730     0.0000660600    -0.0000031200    -0.0000263400
  8     -0.0674995700     7.6399697880     4.0227747750    -0.0000660600    -0.0000031200     0.0000263400
  8      2.5819822410     6.1280994820     4.0015046630    -0.0000312200    -0.0000104000     0.0000351800
  8      0.8672342940     6.1280994820     6.2606169080     0.0000312200    -0.0000104000    -0.0000351800
  8      0.7868985120     3.0571139340     6.1851485560     0.0000440800    -0.0000421400     0.0000119400
  8      2.6623181830     3.0571139340     4.0769730150    -0.0000440800    -0.0000421400    -0.0000119400
  8      1.5377100740     1.8543894030     1.7602298190    -0.0001522600     0.0000042900    -0.0000984000
  8      1.9115066010     1.8543894030     8.5018909820     0.0001522600     0.0000042900     0.0000984000
  8      4.9678535210     9.1773468000     1.7957762640    -0.0000727500    -0.0000092200     0.0001032800
  8     -1.5186369050     9.1773468000     8.4663443930     0.0000727500    -0.0000092200    -0.0001032800
  8      2.1140848170     7.1101474210     8.4703945220     0.0000260700     0.0000439400    -0.0000158300
  8      1.3351317480     7.1101474210     1.7917268850    -0.0000260700     0.0000439400     0.0000158300
  8      3.9812763680     6.7518946080     1.7828588950    -0.0000146600    -0.0000072600    -0.0000285200
  8     -0.5320596700     6.7518946080     8.4792622140     0.0000146600    -0.0000072600     0.0000285200
  8      2.3340872970     4.6656028380     1.7041552610    -0.0000854900     0.0000455000     0.0001579500
  8      1.1151290510     4.6656028380     8.5579664630     0.0000854900     0.0000455000    -0.0001579500
  8     -0.8360675320     2.5837242100     8.5843826220     0.0001446600    -0.0000702000     0.0000013700
  8      4.2852839640     2.5837242100     1.6777386410    -0.0001446600    -0.0000702000    -0.0000013700
  8     -0.0674551070     4.5546866400     4.0858579070    -0.0000362300     0.0000338400     0.0000583300
  8      3.5166714820     4.5546866400     6.1762636640     0.0000362300     0.0000338400    -0.0000583300
  8      2.6132777080     0.0015084650     4.1028059890    -0.0000518900     0.0000430500    -0.0001090800
  8      0.8359391480     0.0015084650     6.1593146580     0.0000518900     0.0000430500     0.0001090800
  1     -0.1091006890     4.3838995270     3.1327917090    -0.0000416100     0.0000254900     0.0000273200
  1      3.5583175440     4.3838995270     7.1293298520     0.0000416100     0.0000254900    -0.0000273200
  1      2.5916712580     0.1576911120     3.1486896940    -0.0000424600    -0.0000470900     0.0000887700
  1      0.8575456510     0.1576911120     7.1134315690     0.0000424600    -0.0000470900    -0.0000887700
 26     -0.9284710970     3.0580799090     5.1310604830     0.0000000000     0.0000403100     0.0000000000
 CONVCOORD
          44           1
 19      0.0000000000     4.5637907620     0.0000000000
 19      2.6530799740     0.0487847790     0.0000000000
 12     -0.9284710970     0.0818859300     5.1310604830
 12     -0.9284710970     6.0731862210     5.1310604830
 12      1.7246082450     4.5004441980     5.1310604830
 12      1.7246082450     7.6635735890     5.1310604830
 12      1.7246082450     1.6021202240     5.1310604830
 14      0.0442816140     1.5434134620     2.3351092390
 14      3.4049348160     1.5434134620     7.9270124750
 14      3.5465799930     7.6693134320     7.8581643580
 14     -0.0973633320     7.6693134320     2.4039567510
 14      2.5517774430     6.1229610930     2.3727024150
 14      0.8974393340     6.1229610930     7.8894186940
 13      0.7364307090     3.0488530160     7.9188954960
 13      2.7127857220     3.0488530160     2.3432257670
  8     -0.0406004210     1.5441283970     3.9722704050
  8      3.4898167730     1.5441283970     6.2898508590
  8      3.5167161920     7.6399697880     6.2393458730
  8     -0.0674995700     7.6399697880     4.0227747750
  8      2.5819822410     6.1280994820     4.0015046630
  8      0.8672342940     6.1280994820     6.2606169080
  8      0.7868985120     3.0571139340     6.1851485560
  8      2.6623181830     3.0571139340     4.0769730150
  8      1.5377100740     1.8543894030     1.7602298190
  8      1.9115066010     1.8543894030     8.5018909820
  8      4.9678535210     9.1773468000     1.7957762640
  8     -1.5186369050     9.1773468000     8.4663443930
  8      2.1140848170     7.1101474210     8.4703945220
  8      1.3351317480     7.1101474210     1.7917268850
  8      3.9812763680     6.7518946080     1.7828588950
  8     -0.5320596700     6.7518946080     8.4792622140
  8      2.3340872970     4.6656028380     1.7041552610
  8      1.1151290510     4.6656028380     8.5579664630
  8     -0.8360675320     2.5837242100     8.5843826220
  8      4.2852839640     2.5837242100     1.6777386410
  8     -0.0674551070     4.5546866400     4.0858579070
  8      3.5166714820     4.5546866400     6.1762636640
  8      2.6132777080     0.0015084650     4.1028059890
  8      0.8359391480     0.0015084650     6.1593146580
  1     -0.1091006890     4.3838995270     3.1327917090
  1      3.5583175440     4.3838995270     7.1293298520
  1      2.5916712580     0.1576911120     3.1486896940
  1      0.8575456510     0.1576911120     7.1134315690
 26     -0.9284710970     3.0580799090     5.1310604830
 RECIP-PRIMVEC
    0.1884602563   -0.0000000000    0.0341020611

    0.0000000000    0.1089435109   -0.0000000000

    0.0000000000    0.0000000000    0.0974457371

 RECIP-CONVVEC
    0.1884602563   -0.0000000000    0.0341020611

    0.0000000000    0.1089435109   -0.0000000000

    0.0000000000    0.0000000000    0.0974457371

 WIGNER-SEITZ-PRIMCELL
           4
 -0.2653079E+01  0.4589534E+01 -0.4818991E+01  -0.3185969E+00  0.6009173E-17 -0.9478903E+00
 -0.7961387E+00  0.4589534E+01 -0.5443130E+01  -0.3185969E+00  0.6009173E-17 -0.9478903E+00
 -0.7961387E+00 -0.4589534E+01 -0.5443130E+01  -0.3185969E+00  0.6009173E-17 -0.9478903E+00
 -0.2653079E+01 -0.4589534E+01 -0.4818991E+01  -0.3185969E+00  0.6009173E-17 -0.9478903E+00
           4
 -0.2653079E+01  0.4589534E+01 -0.4818991E+01  -0.1000000E+01 -0.0000000E+00 -0.0000000E+00
 -0.2653079E+01 -0.4589534E+01 -0.4818991E+01  -0.1000000E+01 -0.0000000E+00 -0.0000000E+00
 -0.2653079E+01 -0.4589534E+01  0.4818991E+01  -0.1000000E+01 -0.0000000E+00 -0.0000000E+00
 -0.2653079E+01  0.4589534E+01  0.4818991E+01  -0.1000000E+01 -0.0000000E+00 -0.0000000E+00
           6
  0.2653079E+01 -0.4589534E+01  0.4818991E+01  -0.0000000E+00 -0.1000000E+01  0.5363750E-15
  0.7961387E+00 -0.4589534E+01  0.5443130E+01  -0.0000000E+00 -0.1000000E+01  0.5363750E-15
 -0.2653079E+01 -0.4589534E+01  0.4818991E+01  -0.0000000E+00 -0.1000000E+01  0.5363750E-15
 -0.2653079E+01 -0.4589534E+01 -0.4818991E+01  -0.0000000E+00 -0.1000000E+01  0.5363750E-15
 -0.7961387E+00 -0.4589534E+01 -0.5443130E+01  -0.0000000E+00 -0.1000000E+01  0.5363750E-15
  0.2653079E+01 -0.4589534E+01 -0.4818991E+01  -0.0000000E+00 -0.1000000E+01  0.5363750E-15
           4
  0.2653079E+01  0.4589534E+01 -0.4818991E+01   0.1780593E+00 -0.1104192E-15 -0.9840198E+00
  0.2653079E+01 -0.4589534E+01 -0.4818991E+01   0.1780593E+00 -0.1104192E-15 -0.9840198E+00
 -0.7961387E+00 -0.4589534E+01 -0.5443130E+01   0.1780593E+00 -0.1104192E-15 -0.9840198E+00
 -0.7961387E+00  0.4589534E+01 -0.5443130E+01   0.1780593E+00 -0.1104192E-15 -0.9840198E+00
           4
 -0.2653079E+01  0.4589534E+01  0.4818991E+01  -0.1780593E+00  0.1104192E-15  0.9840198E+00
 -0.2653079E+01 -0.4589534E+01  0.4818991E+01  -0.1780593E+00  0.1104192E-15  0.9840198E+00
  0.7961387E+00 -0.4589534E+01  0.5443130E+01  -0.1780593E+00  0.1104192E-15  0.9840198E+00
  0.7961387E+00  0.4589534E+01  0.5443130E+01  -0.1780593E+00  0.1104192E-15  0.9840198E+00
           6
  0.2653079E+01  0.4589534E+01 -0.4818991E+01   0.0000000E+00  0.1000000E+01  0.5363750E-15
 -0.7961387E+00  0.4589534E+01 -0.5443130E+01   0.0000000E+00  0.1000000E+01  0.5363750E-15
 -0.2653079E+01  0.4589534E+01 -0.4818991E+01   0.0000000E+00  0.1000000E+01  0.5363750E-15
 -0.2653079E+01  0.4589534E+01  0.4818991E+01   0.0000000E+00  0.1000000E+01  0.5363750E-15
  0.7961387E+00  0.4589534E+01  0.5443130E+01   0.0000000E+00  0.1000000E+01  0.5363750E-15
  0.2653079E+01  0.4589534E+01  0.4818991E+01   0.0000000E+00  0.1000000E+01  0.5363750E-15
           4
  0.2653079E+01  0.4589534E+01  0.4818991E+01   0.1000000E+01  0.0000000E+00  0.0000000E+00
  0.2653079E+01 -0.4589534E+01  0.4818991E+01   0.1000000E+01  0.0000000E+00  0.0000000E+00
  0.2653079E+01 -0.4589534E+01 -0.4818991E+01   0.1000000E+01  0.0000000E+00  0.0000000E+00
  0.2653079E+01  0.4589534E+01 -0.4818991E+01   0.1000000E+01  0.0000000E+00  0.0000000E+00
           4
  0.2653079E+01 -0.4589534E+01  0.4818991E+01   0.3185969E+00 -0.0000000E+00  0.9478903E+00
  0.2653079E+01  0.4589534E+01  0.4818991E+01   0.3185969E+00 -0.0000000E+00  0.9478903E+00
  0.7961387E+00  0.4589534E+01  0.5443130E+01   0.3185969E+00 -0.0000000E+00  0.9478903E+00
  0.7961387E+00 -0.4589534E+01  0.5443130E+01   0.3185969E+00 -0.0000000E+00  0.9478903E+00
 WIGNER-SEITZ-PRIMCELL_END
 WIGNER-SEITZ-CONVCELL
           4
 -0.2653079E+01  0.4589534E+01 -0.4818991E+01  -0.3185969E+00  0.6009173E-17 -0.9478903E+00
 -0.7961387E+00  0.4589534E+01 -0.5443130E+01  -0.3185969E+00  0.6009173E-17 -0.9478903E+00
 -0.7961387E+00 -0.4589534E+01 -0.5443130E+01  -0.3185969E+00  0.6009173E-17 -0.9478903E+00
 -0.2653079E+01 -0.4589534E+01 -0.4818991E+01  -0.3185969E+00  0.6009173E-17 -0.9478903E+00
           4
 -0.2653079E+01  0.4589534E+01 -0.4818991E+01  -0.1000000E+01 -0.0000000E+00 -0.0000000E+00
 -0.2653079E+01 -0.4589534E+01 -0.4818991E+01  -0.1000000E+01 -0.0000000E+00 -0.0000000E+00
 -0.2653079E+01 -0.4589534E+01  0.4818991E+01  -0.1000000E+01 -0.0000000E+00 -0.0000000E+00
 -0.2653079E+01  0.4589534E+01  0.4818991E+01  -0.1000000E+01 -0.0000000E+00 -0.0000000E+00
           6
  0.2653079E+01 -0.4589534E+01  0.4818991E+01  -0.0000000E+00 -0.1000000E+01  0.5363750E-15
  0.7961387E+00 -0.4589534E+01  0.5443130E+01  -0.0000000E+00 -0.1000000E+01  0.5363750E-15
 -0.2653079E+01 -0.4589534E+01  0.4818991E+01  -0.0000000E+00 -0.1000000E+01  0.5363750E-15
 -0.2653079E+01 -0.4589534E+01 -0.4818991E+01  -0.0000000E+00 -0.1000000E+01  0.5363750E-15
 -0.7961387E+00 -0.4589534E+01 -0.5443130E+01  -0.0000000E+00 -0.1000000E+01  0.5363750E-15
  0.2653079E+01 -0.4589534E+01 -0.4818991E+01  -0.0000000E+00 -0.1000000E+01  0.5363750E-15
           4
  0.2653079E+01  0.4589534E+01 -0.4818991E+01   0.1780593E+00 -0.1104192E-15 -0.9840198E+00
  0.2653079E+01 -0.4589534E+01 -0.4818991E+01   0.1780593E+00 -0.1104192E-15 -0.9840198E+00
 -0.7961387E+00 -0.4589534E+01 -0.5443130E+01   0.1780593E+00 -0.1104192E-15 -0.9840198E+00
 -0.7961387E+00  0.4589534E+01 -0.5443130E+01   0.1780593E+00 -0.1104192E-15 -0.9840198E+00
           4
 -0.2653079E+01  0.4589534E+01  0.4818991E+01  -0.1780593E+00  0.1104192E-15  0.9840198E+00
 -0.2653079E+01 -0.4589534E+01  0.4818991E+01  -0.1780593E+00  0.1104192E-15  0.9840198E+00
  0.7961387E+00 -0.4589534E+01  0.5443130E+01  -0.1780593E+00  0.1104192E-15  0.9840198E+00
  0.7961387E+00  0.4589534E+01  0.5443130E+01  -0.1780593E+00  0.1104192E-15  0.9840198E+00
           6
  0.2653079E+01  0.4589534E+01 -0.4818991E+01   0.0000000E+00  0.1000000E+01  0.5363750E-15
 -0.7961387E+00  0.4589534E+01 -0.5443130E+01   0.0000000E+00  0.1000000E+01  0.5363750E-15
 -0.2653079E+01  0.4589534E+01 -0.4818991E+01   0.0000000E+00  0.1000000E+01  0.5363750E-15
 -0.2653079E+01  0.4589534E+01  0.4818991E+01   0.0000000E+00  0.1000000E+01  0.5363750E-15
  0.7961387E+00  0.4589534E+01  0.5443130E+01   0.0000000E+00  0.1000000E+01  0.5363750E-15
  0.2653079E+01  0.4589534E+01  0.4818991E+01   0.0000000E+00  0.1000000E+01  0.5363750E-15
           4
  0.2653079E+01  0.4589534E+01  0.4818991E+01   0.1000000E+01  0.0000000E+00  0.0000000E+00
  0.2653079E+01 -0.4589534E+01  0.4818991E+01   0.1000000E+01  0.0000000E+00  0.0000000E+00
  0.2653079E+01 -0.4589534E+01 -0.4818991E+01   0.1000000E+01  0.0000000E+00  0.0000000E+00
  0.2653079E+01  0.4589534E+01 -0.4818991E+01   0.1000000E+01  0.0000000E+00  0.0000000E+00
           4
  0.2653079E+01 -0.4589534E+01  0.4818991E+01   0.3185969E+00 -0.0000000E+00  0.9478903E+00
  0.2653079E+01  0.4589534E+01  0.4818991E+01   0.3185969E+00 -0.0000000E+00  0.9478903E+00
  0.7961387E+00  0.4589534E+01  0.5443130E+01   0.3185969E+00 -0.0000000E+00  0.9478903E+00
  0.7961387E+00 -0.4589534E+01  0.5443130E+01   0.3185969E+00 -0.0000000E+00  0.9478903E+00
 WIGNER-SEITZ-CONVCELL_END
 BRILLOUIN-ZONE-PRIMCELL
           4
  0.9996118E-01 -0.5447176E-01 -0.1462081E-01   0.9478903E+00 -0.1142043E-15 -0.3185969E+00
  0.8849908E-01 -0.5447176E-01 -0.4872287E-01   0.9478903E+00 -0.1142043E-15 -0.3185969E+00
  0.8849908E-01  0.5447176E-01 -0.4872287E-01   0.9478903E+00 -0.1142043E-15 -0.3185969E+00
  0.9996118E-01  0.5447176E-01 -0.1462081E-01   0.9478903E+00 -0.1142043E-15 -0.3185969E+00
           4
 -0.8849908E-01 -0.5447176E-01 -0.4872287E-01   0.0000000E+00  0.0000000E+00 -0.1000000E+01
 -0.8849908E-01  0.5447176E-01 -0.4872287E-01   0.0000000E+00  0.0000000E+00 -0.1000000E+01
  0.8849908E-01  0.5447176E-01 -0.4872287E-01   0.0000000E+00  0.0000000E+00 -0.1000000E+01
  0.8849908E-01 -0.5447176E-01 -0.4872287E-01   0.0000000E+00  0.0000000E+00 -0.1000000E+01
           6
  0.8849908E-01 -0.5447176E-01  0.4872287E-01   0.0000000E+00 -0.1000000E+01 -0.5747922E-15
 -0.8849908E-01 -0.5447176E-01  0.4872287E-01   0.0000000E+00 -0.1000000E+01 -0.5747922E-15
 -0.9996118E-01 -0.5447176E-01  0.1462081E-01   0.0000000E+00 -0.1000000E+01 -0.5747922E-15
 -0.8849908E-01 -0.5447176E-01 -0.4872287E-01   0.0000000E+00 -0.1000000E+01 -0.5747922E-15
  0.8849908E-01 -0.5447176E-01 -0.4872287E-01   0.0000000E+00 -0.1000000E+01 -0.5747922E-15
  0.9996118E-01 -0.5447176E-01 -0.1462081E-01   0.0000000E+00 -0.1000000E+01 -0.5747922E-15
           4
  0.8849908E-01  0.5447176E-01  0.4872287E-01   0.9840198E+00 -0.1159500E-16  0.1780593E+00
  0.8849908E-01 -0.5447176E-01  0.4872287E-01   0.9840198E+00 -0.1159500E-16  0.1780593E+00
  0.9996118E-01 -0.5447176E-01 -0.1462081E-01   0.9840198E+00 -0.1159500E-16  0.1780593E+00
  0.9996118E-01  0.5447176E-01 -0.1462081E-01   0.9840198E+00 -0.1159500E-16  0.1780593E+00
           4
 -0.8849908E-01  0.5447176E-01 -0.4872287E-01  -0.9840198E+00 -0.4638000E-16 -0.1780593E+00
 -0.8849908E-01 -0.5447176E-01 -0.4872287E-01  -0.9840198E+00 -0.4638000E-16 -0.1780593E+00
 -0.9996118E-01 -0.5447176E-01  0.1462081E-01  -0.9840198E+00 -0.4638000E-16 -0.1780593E+00
 -0.9996118E-01  0.5447176E-01  0.1462081E-01  -0.9840198E+00 -0.4638000E-16 -0.1780593E+00
           6
  0.9996118E-01  0.5447176E-01 -0.1462081E-01  -0.0000000E+00  0.1000000E+01 -0.5747922E-15
  0.8849908E-01  0.5447176E-01 -0.4872287E-01  -0.0000000E+00  0.1000000E+01 -0.5747922E-15
 -0.8849908E-01  0.5447176E-01 -0.4872287E-01  -0.0000000E+00  0.1000000E+01 -0.5747922E-15
 -0.9996118E-01  0.5447176E-01  0.1462081E-01  -0.0000000E+00  0.1000000E+01 -0.5747922E-15
 -0.8849908E-01  0.5447176E-01  0.4872287E-01  -0.0000000E+00  0.1000000E+01 -0.5747922E-15
  0.8849908E-01  0.5447176E-01  0.4872287E-01  -0.0000000E+00  0.1000000E+01 -0.5747922E-15
           4
 -0.8849908E-01 -0.5447176E-01  0.4872287E-01  -0.4498111E-16  0.3506574E-16  0.1000000E+01
  0.8849908E-01 -0.5447176E-01  0.4872287E-01  -0.4498111E-16  0.3506574E-16  0.1000000E+01
  0.8849908E-01  0.5447176E-01  0.4872287E-01  -0.4498111E-16  0.3506574E-16  0.1000000E+01
 -0.8849908E-01  0.5447176E-01  0.4872287E-01  -0.4498111E-16  0.3506574E-16  0.1000000E+01
           4
 -0.8849908E-01  0.5447176E-01  0.4872287E-01  -0.9478903E+00 -0.4003562E-15  0.3185969E+00
 -0.9996118E-01  0.5447176E-01  0.1462081E-01  -0.9478903E+00 -0.4003562E-15  0.3185969E+00
 -0.9996118E-01 -0.5447176E-01  0.1462081E-01  -0.9478903E+00 -0.4003562E-15  0.3185969E+00
 -0.8849908E-01 -0.5447176E-01  0.4872287E-01  -0.9478903E+00 -0.4003562E-15  0.3185969E+00
 BRILLOUIN-ZONE-PRIMCELL_END
 BRILLOUIN-ZONE-CONVCELL
           4
  0.9996118E-01 -0.5447176E-01 -0.1462081E-01   0.9478903E+00 -0.1142043E-15 -0.3185969E+00
  0.8849908E-01 -0.5447176E-01 -0.4872287E-01   0.9478903E+00 -0.1142043E-15 -0.3185969E+00
  0.8849908E-01  0.5447176E-01 -0.4872287E-01   0.9478903E+00 -0.1142043E-15 -0.3185969E+00
  0.9996118E-01  0.5447176E-01 -0.1462081E-01   0.9478903E+00 -0.1142043E-15 -0.3185969E+00
           4
 -0.8849908E-01 -0.5447176E-01 -0.4872287E-01   0.0000000E+00  0.0000000E+00 -0.1000000E+01
 -0.8849908E-01  0.5447176E-01 -0.4872287E-01   0.0000000E+00  0.0000000E+00 -0.1000000E+01
  0.8849908E-01  0.5447176E-01 -0.4872287E-01   0.0000000E+00  0.0000000E+00 -0.1000000E+01
  0.8849908E-01 -0.5447176E-01 -0.4872287E-01   0.0000000E+00  0.0000000E+00 -0.1000000E+01
           6
  0.8849908E-01 -0.5447176E-01  0.4872287E-01   0.0000000E+00 -0.1000000E+01 -0.5747922E-15
 -0.8849908E-01 -0.5447176E-01  0.4872287E-01   0.0000000E+00 -0.1000000E+01 -0.5747922E-15
 -0.9996118E-01 -0.5447176E-01  0.1462081E-01   0.0000000E+00 -0.1000000E+01 -0.5747922E-15
 -0.8849908E-01 -0.5447176E-01 -0.4872287E-01   0.0000000E+00 -0.1000000E+01 -0.5747922E-15
  0.8849908E-01 -0.5447176E-01 -0.4872287E-01   0.0000000E+00 -0.1000000E+01 -0.5747922E-15
  0.9996118E-01 -0.5447176E-01 -0.1462081E-01   0.0000000E+00 -0.1000000E+01 -0.5747922E-15
           4
  0.8849908E-01  0.5447176E-01  0.4872287E-01   0.9840198E+00 -0.1159500E-16  0.1780593E+00
  0.8849908E-01 -0.5447176E-01  0.4872287E-01   0.9840198E+00 -0.1159500E-16  0.1780593E+00
  0.9996118E-01 -0.5447176E-01 -0.1462081E-01   0.9840198E+00 -0.1159500E-16  0.1780593E+00
  0.9996118E-01  0.5447176E-01 -0.1462081E-01   0.9840198E+00 -0.1159500E-16  0.1780593E+00
           4
 -0.8849908E-01  0.5447176E-01 -0.4872287E-01  -0.9840198E+00 -0.4638000E-16 -0.1780593E+00
 -0.8849908E-01 -0.5447176E-01 -0.4872287E-01  -0.9840198E+00 -0.4638000E-16 -0.1780593E+00
 -0.9996118E-01 -0.5447176E-01  0.1462081E-01  -0.9840198E+00 -0.4638000E-16 -0.1780593E+00
 -0.9996118E-01  0.5447176E-01  0.1462081E-01  -0.9840198E+00 -0.4638000E-16 -0.1780593E+00
           6
  0.9996118E-01  0.5447176E-01 -0.1462081E-01  -0.0000000E+00  0.1000000E+01 -0.5747922E-15
  0.8849908E-01  0.5447176E-01 -0.4872287E-01  -0.0000000E+00  0.1000000E+01 -0.5747922E-15
 -0.8849908E-01  0.5447176E-01 -0.4872287E-01  -0.0000000E+00  0.1000000E+01 -0.5747922E-15
 -0.9996118E-01  0.5447176E-01  0.1462081E-01  -0.0000000E+00  0.1000000E+01 -0.5747922E-15
 -0.8849908E-01  0.5447176E-01  0.4872287E-01  -0.0000000E+00  0.1000000E+01 -0.5747922E-15
  0.8849908E-01  0.5447176E-01  0.4872287E-01  -0.0000000E+00  0.1000000E+01 -0.5747922E-15
           4
 -0.8849908E-01 -0.5447176E-01  0.4872287E-01  -0.4498111E-16  0.3506574E-16  0.1000000E+01
  0.8849908E-01 -0.5447176E-01  0.4872287E-01  -0.4498111E-16  0.3506574E-16  0.1000000E+01
  0.8849908E-01  0.5447176E-01  0.4872287E-01  -0.4498111E-16  0.3506574E-16  0.1000000E+01
 -0.8849908E-01  0.5447176E-01  0.4872287E-01  -0.4498111E-16  0.3506574E-16  0.1000000E+01
           4
 -0.8849908E-01  0.5447176E-01  0.4872287E-01  -0.9478903E+00 -0.4003562E-15  0.3185969E+00
 -0.9996118E-01  0.5447176E-01  0.1462081E-01  -0.9478903E+00 -0.4003562E-15  0.3185969E+00
 -0.9996118E-01 -0.5447176E-01  0.1462081E-01  -0.9478903E+00 -0.4003562E-15  0.3185969E+00
 -0.8849908E-01 -0.5447176E-01  0.4872287E-01  -0.9478903E+00 -0.4003562E-15  0.3185969E+00
 BRILLOUIN-ZONE-CONVCELL_END
 ATOMS
   19    0.0000000000    4.5637907620    0.0000000000    0.0000000000    0.0000945600    0.0000000000
   19    2.6530799740    0.0487847790    0.0000000000    0.0000000000   -0.0000786900    0.0000000000
   12   -0.9284710970    0.0818859300    5.1310604830    0.0000000000   -0.0000587200    0.0000000000
   12   -0.9284710970    6.0731862210    5.1310604830    0.0000000000    0.0001459900    0.0000000000
   12    1.7246082450    4.5004441980    5.1310604830    0.0000000000   -0.0000320300    0.0000000000
   12    1.7246082450    7.6635735890    5.1310604830    0.0000000000   -0.0000386900    0.0000000000
   12    1.7246082450    1.6021202240    5.1310604830    0.0000000000   -0.0001402100    0.0000000000
   14    0.0442816140    1.5434134620    2.3351092390   -0.0000719600    0.0000101100   -0.0000151200
   14    3.4049348160    1.5434134620    7.9270124750    0.0000719600    0.0000101100    0.0000151200
   14    3.5465799930    7.6693134320    7.8581643580    0.0000355200    0.0000033200    0.0000641700
   14   -0.0973633320    7.6693134320    2.4039567510   -0.0000355200    0.0000033200   -0.0000641700
   14    2.5517774430    6.1229610930    2.3727024150   -0.0000250500    0.0000548900   -0.0000149500
   14    0.8974393340    6.1229610930    7.8894186940    0.0000250500    0.0000548900    0.0000149500
   13    0.7364307090    3.0488530160    7.9188954960    0.0001331900   -0.0000156200    0.0000385600
   13    2.7127857220    3.0488530160    2.3432257670   -0.0001331900   -0.0000156200   -0.0000385600
    8   -0.0406004210    1.5441283970    3.9722704050   -0.0000152700   -0.0000256700    0.0000322200
    8    3.4898167730    1.5441283970    6.2898508590    0.0000152700   -0.0000256700   -0.0000322200
    8    3.5167161920    7.6399697880    6.2393458730    0.0000660600   -0.0000031200   -0.0000263400
    8   -0.0674995700    7.6399697880    4.0227747750   -0.0000660600   -0.0000031200    0.0000263400
    8    2.5819822410    6.1280994820    4.0015046630   -0.0000312200   -0.0000104000    0.0000351800
    8    0.8672342940    6.1280994820    6.2606169080    0.0000312200   -0.0000104000   -0.0000351800
    8    0.7868985120    3.0571139340    6.1851485560    0.0000440800   -0.0000421400    0.0000119400
    8    2.6623181830    3.0571139340    4.0769730150   -0.0000440800   -0.0000421400   -0.0000119400
    8    1.5377100740    1.8543894030    1.7602298190   -0.0001522600    0.0000042900   -0.0000984000
    8    1.9115066010    1.8543894030    8.5018909820    0.0001522600    0.0000042900    0.0000984000
    8    4.9678535210    9.1773468000    1.7957762640   -0.0000727500   -0.0000092200    0.0001032800
    8   -1.5186369050    9.1773468000    8.4663443930    0.0000727500   -0.0000092200   -0.0001032800
    8    2.1140848170    7.1101474210    8.4703945220    0.0000260700    0.0000439400   -0.0000158300
    8    1.3351317480    7.1101474210    1.7917268850   -0.0000260700    0.0000439400    0.0000158300
    8    3.9812763680    6.7518946080    1.7828588950   -0.0000146600   -0.0000072600   -0.0000285200
    8   -0.5320596700    6.7518946080    8.4792622140    0.0000146600   -0.0000072600    0.0000285200
    8    2.3340872970    4.6656028380    1.7041552610   -0.0000854900    0.0000455000    0.0001579500
    8    1.1151290510    4.6656028380    8.5579664630    0.0000854900    0.0000455000   -0.0001579500
    8   -0.8360675320    2.5837242100    8.5843826220    0.0001446600   -0.0000702000    0.0000013700
    8    4.2852839640    2.5837242100    1.6777386410   -0.0001446600   -0.0000702000   -0.0000013700
    8   -0.0674551070    4.5546866400    4.0858579070   -0.0000362300    0.0000338400    0.0000583300
    8    3.5166714820    4.5546866400    6.1762636640    0.0000362300    0.0000338400   -0.0000583300
    8    2.6132777080    0.0015084650    4.1028059890   -0.0000518900    0.0000430500   -0.0001090800
    8    0.8359391480    0.0015084650    6.1593146580    0.0000518900    0.0000430500    0.0001090800
    1   -0.1091006890    4.3838995270    3.1327917090   -0.0000416100    0.0000254900    0.0000273200
    1    3.5583175440    4.3838995270    7.1293298520    0.0000416100    0.0000254900   -0.0000273200
    1    2.5916712580    0.1576911120    3.1486896940   -0.0000424600   -0.0000470900    0.0000887700
    1    0.8575456510    0.1576911120    7.1134315690    0.0000424600   -0.0000470900   -0.0000887700
   26   -0.9284710970    3.0580799090    5.1310604830    0.0000000000    0.0000403100    0.0000000000
   19   -1.8569405730    4.5637907620   10.2621215620    0.0000000000    0.0000945600    0.0000000000
   19    0.7961394010    0.0487847790   10.2621215620    0.0000000000   -0.0000786900    0.0000000000
   19    5.3061585470    4.5637907620    0.0000000000    0.0000000000    0.0000945600    0.0000000000
   12    4.3776874500    0.0818859300    5.1310604830    0.0000000000   -0.0000587200    0.0000000000
   12    4.3776874500    6.0731862210    5.1310604830    0.0000000000    0.0001459900    0.0000000000
   26    4.3776874500    3.0580799090    5.1310604830    0.0000000000    0.0000403100    0.0000000000
   19    3.4492179740    4.5637907620   10.2621215620    0.0000000000    0.0000945600    0.0000000000
 FRAMES
1      0.0000000000    0.0000000000    0.0000000000      5.3061585470    0.0000000000    0.0000000000
1      0.0000000000    0.0000000000    0.0000000000      0.0000000000    9.1790689650    0.0000000000
1      0.0000000000    0.0000000000    0.0000000000     -1.8569405730    0.0000000000   10.2621215620
1     -1.8569405730    0.0000000000   10.2621215620      3.4492179740    0.0000000000   10.2621215620
1     -1.8569405730    0.0000000000   10.2621215620     -1.8569405730    9.1790689650   10.2621215620
1      0.0000000000    9.1790689650    0.0000000000      5.3061585470    9.1790689650    0.0000000000
1      0.0000000000    9.1790689650    0.0000000000     -1.8569405730    9.1790689650   10.2621215620
1     -1.8569405730    9.1790689650   10.2621215620      3.4492179740    9.1790689650   10.2621215620
1      5.3061585470    0.0000000000    0.0000000000      5.3061585470    9.1790689650    0.0000000000
1      5.3061585470    0.0000000000    0.0000000000      3.4492179740    0.0000000000   10.2621215620
1      3.4492179740    0.0000000000   10.2621215620      3.4492179740    9.1790689650   10.2621215620
1      5.3061585470    9.1790689650    0.0000000000      3.4492179740    9.1790689650   10.2621215620
