 INFO
nunit      1    1    1
unit   cell
celltype   primcell
shape   parapipedal
 END_INFO
 DIM-GROUP
           3           1
 PRIMVEC
    5.3050178230    0.0000000000    0.0000000000
    0.0000000000    9.2475963560    0.0000000000
   -1.8525761690    0.0000000000   10.1780756930
 CONVVEC
    5.3050178230    0.0000000000    0.0000000000
    0.0000000000    9.2475963560    0.0000000000
   -1.8525761690    0.0000000000   10.1780756930
 PRIMCOORD
          43           1
 19      0.0000000000     4.6041201010     0.0000000000     0.0000000000     0.0003719600     0.0000000000
 19      2.6525083570     0.0626917660     0.0000000000     0.0000000000    -0.0004835500     0.0000000000
 12     -0.9262864850     9.2419633520     5.0890367380     0.0000000000    -0.0001379400     0.0000000000
 12     -0.9262864850     6.1503447330     5.0890367380     0.0000000000    -0.0001942000     0.0000000000
 12      1.7262218660     7.6389906500     5.0890367380     0.0000000000     0.0007959600     0.0000000000
 12      1.7262218660     1.5828296400     5.0890367380     0.0000000000    -0.0005386800     0.0000000000
 14      0.0359834520     1.5398718770     2.2775696270    -0.0001016600    -0.0004496200    -0.0000129800
 14      3.4164603860     1.5398718770     7.9005041450     0.0001016600    -0.0004496200     0.0000129800
 14      3.5021882860     7.6993780210     7.8379212590     0.0001360200     0.0000929800     0.0003924300
 14     -0.0497445640     7.6993780210     2.3401516070    -0.0001360200     0.0000929800    -0.0003924300
 14      2.6172592270     6.1821602190     2.3325682690    -0.0000156900     0.0005230900    -0.0002740400
 14      0.8351844070     6.1821602190     7.8455049020     0.0000156900     0.0005230900     0.0002740400
 13      0.7169145530     3.0815832720     7.8972992590     0.0001792100    -0.0000577400     0.0006079800
 13      2.7355290490     3.0815832720     2.2807740640    -0.0001792100    -0.0000577400    -0.0006079800
  8     -0.0548947750     1.5828869740     3.9367280660     0.0002916400    -0.0000261900    -0.0007104500
  8      3.5073384840     1.5828869740     6.2413451050    -0.0002916400    -0.0000261900     0.0007104500
  8      3.5014538230     7.6853241500     6.2145705940    -0.0002045600     0.0000638000     0.0008030900
  8     -0.0490100110     7.6853241500     3.9635028830     0.0002045600     0.0000638000    -0.0008030900
  8      2.6607932210     6.2425453570     3.9384958690     0.0002578600    -0.0000788100    -0.0007003800
  8      0.7916503590     6.2425453570     6.2395775970    -0.0002578600    -0.0000788100     0.0007003800
  8      0.6371092940     2.9899779370     6.1325903200     0.0004464400    -0.0004302800     0.0001998000
  8      2.8153345500     2.9899779370     4.0454825460    -0.0004464400    -0.0004302800    -0.0001998000
  8      1.5245451970     1.9126964410     1.7613572930    -0.0002257100     0.0002772800     0.0001795800
  8      1.9278984930     1.9126964410     8.4167155720     0.0002257100     0.0002772800    -0.0001795800
  8     -0.2693048110     9.2280734840     1.7709087810    -0.0000594900    -0.0000518800     0.0002200800
  8      3.7217484570     9.2280734840     8.4071645320     0.0000594900    -0.0000518800    -0.0002200800
  8      2.0703016170     7.1481700650     8.4430432270     0.0003164600    -0.0003903200    -0.0002130600
  8      1.3821420880     7.1481700650     1.7350304020    -0.0003164600    -0.0003903200     0.0002130600
  8      4.0216472450     6.8235974200     1.6867135610    -0.0000337800    -0.0002684100    -0.0000027000
  8     -0.5692034600     6.8235974200     8.4913600680     0.0000337800    -0.0002684100     0.0000027000
  8      2.4071414180     4.7045534180     1.6979718400    -0.0002881600     0.0001452000     0.0002206300
  8      1.0453019980     4.7045534180     8.4801016270     0.0002881600     0.0001452000    -0.0002206300
  8     -0.7824031060     2.4896348380     8.5982696570     0.0000938800     0.0000758900    -0.0001978400
  8      4.2348471280     2.4896348380     1.5798035140    -0.0000938800     0.0000758900     0.0001978400
  8     -0.1109498000     4.5564853160     3.9787428420    -0.0001600400     0.0000210500     0.0001921300
  8      3.5633935170     4.5564853160     6.1993309290     0.0001600400     0.0000210500    -0.0001921300
  8      2.6101474330     0.0039109380     4.0824046640     0.0002055500     0.0002786800     0.0009282500
  8      0.8422965570     0.0039109380     6.0956691170    -0.0002055500     0.0002786800    -0.0009282500
  1      0.8622834580     4.6129669290     4.0863339230    -0.0000708000     0.0000322000    -0.0001676900
  1      2.5901604890     4.6129669290     6.0917392480     0.0000708000     0.0000322000     0.0001676900
  1      2.6235782850     0.0983510010     3.1202013770    -0.0002454100    -0.0000132400     0.0002404100
  1      0.8288654970     0.0983510010     7.0578727000     0.0002454100    -0.0000132400    -0.0002404100
 22     -0.9262864850     3.1954484150     5.0890367380     0.0000000000     0.0006991100     0.0000000000
 CONVCOORD
          43           1
 19      0.0000000000     4.6041201010     0.0000000000
 19      2.6525083570     0.0626917660     0.0000000000
 12     -0.9262864850     9.2419633520     5.0890367380
 12     -0.9262864850     6.1503447330     5.0890367380
 12      1.7262218660     7.6389906500     5.0890367380
 12      1.7262218660     1.5828296400     5.0890367380
 14      0.0359834520     1.5398718770     2.2775696270
 14      3.4164603860     1.5398718770     7.9005041450
 14      3.5021882860     7.6993780210     7.8379212590
 14     -0.0497445640     7.6993780210     2.3401516070
 14      2.6172592270     6.1821602190     2.3325682690
 14      0.8351844070     6.1821602190     7.8455049020
 13      0.7169145530     3.0815832720     7.8972992590
 13      2.7355290490     3.0815832720     2.2807740640
  8     -0.0548947750     1.5828869740     3.9367280660
  8      3.5073384840     1.5828869740     6.2413451050
  8      3.5014538230     7.6853241500     6.2145705940
  8     -0.0490100110     7.6853241500     3.9635028830
  8      2.6607932210     6.2425453570     3.9384958690
  8      0.7916503590     6.2425453570     6.2395775970
  8      0.6371092940     2.9899779370     6.1325903200
  8      2.8153345500     2.9899779370     4.0454825460
  8      1.5245451970     1.9126964410     1.7613572930
  8      1.9278984930     1.9126964410     8.4167155720
  8     -0.2693048110     9.2280734840     1.7709087810
  8      3.7217484570     9.2280734840     8.4071645320
  8      2.0703016170     7.1481700650     8.4430432270
  8      1.3821420880     7.1481700650     1.7350304020
  8      4.0216472450     6.8235974200     1.6867135610
  8     -0.5692034600     6.8235974200     8.4913600680
  8      2.4071414180     4.7045534180     1.6979718400
  8      1.0453019980     4.7045534180     8.4801016270
  8     -0.7824031060     2.4896348380     8.5982696570
  8      4.2348471280     2.4896348380     1.5798035140
  8     -0.1109498000     4.5564853160     3.9787428420
  8      3.5633935170     4.5564853160     6.1993309290
  8      2.6101474330     0.0039109380     4.0824046640
  8      0.8422965570     0.0039109380     6.0956691170
  1      0.8622834580     4.6129669290     4.0863339230
  1      2.5901604890     4.6129669290     6.0917392480
  1      2.6235782850     0.0983510010     3.1202013770
  1      0.8288654970     0.0983510010     7.0578727000
 22     -0.9262864850     3.1954484150     5.0890367380
 RECIP-PRIMVEC
    0.1885007805   -0.0000000000    0.0343102237

    0.0000000000    0.1081362077   -0.0000000000

    0.0000000000    0.0000000000    0.0982503992

 RECIP-CONVVEC
    0.1885007805   -0.0000000000    0.0343102237

    0.0000000000    0.1081362077   -0.0000000000

    0.0000000000    0.0000000000    0.0982503992

 WIGNER-SEITZ-PRIMCELL
           4
 -0.2652509E+01  0.4623798E+01 -0.4774837E+01  -0.3212268E+00 -0.2041052E-15 -0.9470023E+00
 -0.7999327E+00  0.4623798E+01 -0.5403238E+01  -0.3212268E+00 -0.2041052E-15 -0.9470023E+00
 -0.7999327E+00 -0.4623798E+01 -0.5403238E+01  -0.3212268E+00 -0.2041052E-15 -0.9470023E+00
 -0.2652509E+01 -0.4623798E+01 -0.4774837E+01  -0.3212268E+00 -0.2041052E-15 -0.9470023E+00
           4
 -0.2652509E+01  0.4623798E+01 -0.4774837E+01  -0.1000000E+01  0.4802212E-16  0.4466352E-32
 -0.2652509E+01 -0.4623798E+01 -0.4774837E+01  -0.1000000E+01  0.4802212E-16  0.4466352E-32
 -0.2652509E+01 -0.4623798E+01  0.4774837E+01  -0.1000000E+01  0.4802212E-16  0.4466352E-32
 -0.2652509E+01  0.4623798E+01  0.4774837E+01  -0.1000000E+01  0.4802212E-16  0.4466352E-32
           6
  0.2652509E+01 -0.4623798E+01  0.4774837E+01  -0.0000000E+00 -0.1000000E+01  0.5328520E-15
  0.7999327E+00 -0.4623798E+01  0.5403238E+01  -0.0000000E+00 -0.1000000E+01  0.5328520E-15
 -0.2652509E+01 -0.4623798E+01  0.4774837E+01  -0.0000000E+00 -0.1000000E+01  0.5328520E-15
 -0.2652509E+01 -0.4623798E+01 -0.4774837E+01  -0.0000000E+00 -0.1000000E+01  0.5328520E-15
 -0.7999327E+00 -0.4623798E+01 -0.5403238E+01  -0.0000000E+00 -0.1000000E+01  0.5328520E-15
  0.2652509E+01 -0.4623798E+01 -0.4774837E+01  -0.0000000E+00 -0.1000000E+01  0.5328520E-15
           4
  0.2652509E+01  0.4623798E+01 -0.4774837E+01   0.1790742E+00 -0.1094782E-15 -0.9838356E+00
  0.2652509E+01 -0.4623798E+01 -0.4774837E+01   0.1790742E+00 -0.1094782E-15 -0.9838356E+00
 -0.7999327E+00 -0.4623798E+01 -0.5403238E+01   0.1790742E+00 -0.1094782E-15 -0.9838356E+00
 -0.7999327E+00  0.4623798E+01 -0.5403238E+01   0.1790742E+00 -0.1094782E-15 -0.9838356E+00
           4
  0.7999327E+00  0.4623798E+01  0.5403238E+01  -0.1790742E+00  0.3266619E-16  0.9838356E+00
 -0.2652509E+01  0.4623798E+01  0.4774837E+01  -0.1790742E+00  0.3266619E-16  0.9838356E+00
 -0.2652509E+01 -0.4623798E+01  0.4774837E+01  -0.1790742E+00  0.3266619E-16  0.9838356E+00
  0.7999327E+00 -0.4623798E+01  0.5403238E+01  -0.1790742E+00  0.3266619E-16  0.9838356E+00
           6
  0.2652509E+01  0.4623798E+01 -0.4774837E+01   0.4732677E-30  0.1000000E+01  0.1598556E-14
 -0.7999327E+00  0.4623798E+01 -0.5403238E+01   0.4732677E-30  0.1000000E+01  0.1598556E-14
 -0.2652509E+01  0.4623798E+01 -0.4774837E+01   0.4732677E-30  0.1000000E+01  0.1598556E-14
 -0.2652509E+01  0.4623798E+01  0.4774837E+01   0.4732677E-30  0.1000000E+01  0.1598556E-14
  0.7999327E+00  0.4623798E+01  0.5403238E+01   0.4732677E-30  0.1000000E+01  0.1598556E-14
  0.2652509E+01  0.4623798E+01  0.4774837E+01   0.4732677E-30  0.1000000E+01  0.1598556E-14
           4
  0.2652509E+01  0.4623798E+01  0.4774837E+01   0.1000000E+01 -0.4802212E-16  0.8932705E-32
  0.2652509E+01 -0.4623798E+01  0.4774837E+01   0.1000000E+01 -0.4802212E-16  0.8932705E-32
  0.2652509E+01 -0.4623798E+01 -0.4774837E+01   0.1000000E+01 -0.4802212E-16  0.8932705E-32
  0.2652509E+01  0.4623798E+01 -0.4774837E+01   0.1000000E+01 -0.4802212E-16  0.8932705E-32
           4
  0.7999327E+00 -0.4623798E+01  0.5403238E+01   0.3212268E+00  0.3048723E-15  0.9470023E+00
  0.2652509E+01 -0.4623798E+01  0.4774837E+01   0.3212268E+00  0.3048723E-15  0.9470023E+00
  0.2652509E+01  0.4623798E+01  0.4774837E+01   0.3212268E+00  0.3048723E-15  0.9470023E+00
  0.7999327E+00  0.4623798E+01  0.5403238E+01   0.3212268E+00  0.3048723E-15  0.9470023E+00
 WIGNER-SEITZ-PRIMCELL_END
 WIGNER-SEITZ-CONVCELL
           4
 -0.2652509E+01  0.4623798E+01 -0.4774837E+01  -0.3212268E+00 -0.2041052E-15 -0.9470023E+00
 -0.7999327E+00  0.4623798E+01 -0.5403238E+01  -0.3212268E+00 -0.2041052E-15 -0.9470023E+00
 -0.7999327E+00 -0.4623798E+01 -0.5403238E+01  -0.3212268E+00 -0.2041052E-15 -0.9470023E+00
 -0.2652509E+01 -0.4623798E+01 -0.4774837E+01  -0.3212268E+00 -0.2041052E-15 -0.9470023E+00
           4
 -0.2652509E+01  0.4623798E+01 -0.4774837E+01  -0.1000000E+01  0.4802212E-16  0.4466352E-32
 -0.2652509E+01 -0.4623798E+01 -0.4774837E+01  -0.1000000E+01  0.4802212E-16  0.4466352E-32
 -0.2652509E+01 -0.4623798E+01  0.4774837E+01  -0.1000000E+01  0.4802212E-16  0.4466352E-32
 -0.2652509E+01  0.4623798E+01  0.4774837E+01  -0.1000000E+01  0.4802212E-16  0.4466352E-32
           6
  0.2652509E+01 -0.4623798E+01  0.4774837E+01  -0.0000000E+00 -0.1000000E+01  0.5328520E-15
  0.7999327E+00 -0.4623798E+01  0.5403238E+01  -0.0000000E+00 -0.1000000E+01  0.5328520E-15
 -0.2652509E+01 -0.4623798E+01  0.4774837E+01  -0.0000000E+00 -0.1000000E+01  0.5328520E-15
 -0.2652509E+01 -0.4623798E+01 -0.4774837E+01  -0.0000000E+00 -0.1000000E+01  0.5328520E-15
 -0.7999327E+00 -0.4623798E+01 -0.5403238E+01  -0.0000000E+00 -0.1000000E+01  0.5328520E-15
  0.2652509E+01 -0.4623798E+01 -0.4774837E+01  -0.0000000E+00 -0.1000000E+01  0.5328520E-15
           4
  0.2652509E+01  0.4623798E+01 -0.4774837E+01   0.1790742E+00 -0.1094782E-15 -0.9838356E+00
  0.2652509E+01 -0.4623798E+01 -0.4774837E+01   0.1790742E+00 -0.1094782E-15 -0.9838356E+00
 -0.7999327E+00 -0.4623798E+01 -0.5403238E+01   0.1790742E+00 -0.1094782E-15 -0.9838356E+00
 -0.7999327E+00  0.4623798E+01 -0.5403238E+01   0.1790742E+00 -0.1094782E-15 -0.9838356E+00
           4
  0.7999327E+00  0.4623798E+01  0.5403238E+01  -0.1790742E+00  0.3266619E-16  0.9838356E+00
 -0.2652509E+01  0.4623798E+01  0.4774837E+01  -0.1790742E+00  0.3266619E-16  0.9838356E+00
 -0.2652509E+01 -0.4623798E+01  0.4774837E+01  -0.1790742E+00  0.3266619E-16  0.9838356E+00
  0.7999327E+00 -0.4623798E+01  0.5403238E+01  -0.1790742E+00  0.3266619E-16  0.9838356E+00
           6
  0.2652509E+01  0.4623798E+01 -0.4774837E+01   0.4732677E-30  0.1000000E+01  0.1598556E-14
 -0.7999327E+00  0.4623798E+01 -0.5403238E+01   0.4732677E-30  0.1000000E+01  0.1598556E-14
 -0.2652509E+01  0.4623798E+01 -0.4774837E+01   0.4732677E-30  0.1000000E+01  0.1598556E-14
 -0.2652509E+01  0.4623798E+01  0.4774837E+01   0.4732677E-30  0.1000000E+01  0.1598556E-14
  0.7999327E+00  0.4623798E+01  0.5403238E+01   0.4732677E-30  0.1000000E+01  0.1598556E-14
  0.2652509E+01  0.4623798E+01  0.4774837E+01   0.4732677E-30  0.1000000E+01  0.1598556E-14
           4
  0.2652509E+01  0.4623798E+01  0.4774837E+01   0.1000000E+01 -0.4802212E-16  0.8932705E-32
  0.2652509E+01 -0.4623798E+01  0.4774837E+01   0.1000000E+01 -0.4802212E-16  0.8932705E-32
  0.2652509E+01 -0.4623798E+01 -0.4774837E+01   0.1000000E+01 -0.4802212E-16  0.8932705E-32
  0.2652509E+01  0.4623798E+01 -0.4774837E+01   0.1000000E+01 -0.4802212E-16  0.8932705E-32
           4
  0.7999327E+00 -0.4623798E+01  0.5403238E+01   0.3212268E+00  0.3048723E-15  0.9470023E+00
  0.2652509E+01 -0.4623798E+01  0.4774837E+01   0.3212268E+00  0.3048723E-15  0.9470023E+00
  0.2652509E+01  0.4623798E+01  0.4774837E+01   0.3212268E+00  0.3048723E-15  0.9470023E+00
  0.7999327E+00  0.4623798E+01  0.5403238E+01   0.3212268E+00  0.3048723E-15  0.9470023E+00
 WIGNER-SEITZ-CONVCELL_END
 BRILLOUIN-ZONE-PRIMCELL
           4
  0.1000695E+00  0.5406810E-01 -0.1481498E-01   0.9470023E+00  0.2767366E-16 -0.3212268E+00
  0.1000695E+00 -0.5406810E-01 -0.1481498E-01   0.9470023E+00  0.2767366E-16 -0.3212268E+00
  0.8843131E-01 -0.5406810E-01 -0.4912520E-01   0.9470023E+00  0.2767366E-16 -0.3212268E+00
  0.8843131E-01  0.5406810E-01 -0.4912520E-01   0.9470023E+00  0.2767366E-16 -0.3212268E+00
           4
 -0.8843131E-01 -0.5406810E-01 -0.4912520E-01  -0.4535165E-16  0.0000000E+00 -0.1000000E+01
 -0.8843131E-01  0.5406810E-01 -0.4912520E-01  -0.4535165E-16  0.0000000E+00 -0.1000000E+01
  0.8843131E-01  0.5406810E-01 -0.4912520E-01  -0.4535165E-16  0.0000000E+00 -0.1000000E+01
  0.8843131E-01 -0.5406810E-01 -0.4912520E-01  -0.4535165E-16  0.0000000E+00 -0.1000000E+01
           6
  0.8843131E-01 -0.5406810E-01  0.4912520E-01   0.0000000E+00 -0.1000000E+01  0.5717427E-15
 -0.8843131E-01 -0.5406810E-01  0.4912520E-01   0.0000000E+00 -0.1000000E+01  0.5717427E-15
 -0.1000695E+00 -0.5406810E-01  0.1481498E-01   0.0000000E+00 -0.1000000E+01  0.5717427E-15
 -0.8843131E-01 -0.5406810E-01 -0.4912520E-01   0.0000000E+00 -0.1000000E+01  0.5717427E-15
  0.8843131E-01 -0.5406810E-01 -0.4912520E-01   0.0000000E+00 -0.1000000E+01  0.5717427E-15
  0.1000695E+00 -0.5406810E-01 -0.1481498E-01   0.0000000E+00 -0.1000000E+01  0.5717427E-15
           4
  0.8843131E-01  0.5406810E-01  0.4912520E-01   0.9838356E+00 -0.9256336E-16  0.1790742E+00
  0.8843131E-01 -0.5406810E-01  0.4912520E-01   0.9838356E+00 -0.9256336E-16  0.1790742E+00
  0.1000695E+00 -0.5406810E-01 -0.1481498E-01   0.9838356E+00 -0.9256336E-16  0.1790742E+00
  0.1000695E+00  0.5406810E-01 -0.1481498E-01   0.9838356E+00 -0.9256336E-16  0.1790742E+00
           4
 -0.8843131E-01  0.5406810E-01 -0.4912520E-01  -0.9838356E+00  0.3085445E-16 -0.1790742E+00
 -0.8843131E-01 -0.5406810E-01 -0.4912520E-01  -0.9838356E+00  0.3085445E-16 -0.1790742E+00
 -0.1000695E+00 -0.5406810E-01  0.1481498E-01  -0.9838356E+00  0.3085445E-16 -0.1790742E+00
 -0.1000695E+00  0.5406810E-01  0.1481498E-01  -0.9838356E+00  0.3085445E-16 -0.1790742E+00
           6
  0.1000695E+00  0.5406810E-01 -0.1481498E-01  -0.0000000E+00  0.1000000E+01  0.2858714E-15
  0.8843131E-01  0.5406810E-01 -0.4912520E-01  -0.0000000E+00  0.1000000E+01  0.2858714E-15
 -0.8843131E-01  0.5406810E-01 -0.4912520E-01  -0.0000000E+00  0.1000000E+01  0.2858714E-15
 -0.1000695E+00  0.5406810E-01  0.1481498E-01  -0.0000000E+00  0.1000000E+01  0.2858714E-15
 -0.8843131E-01  0.5406810E-01  0.4912520E-01  -0.0000000E+00  0.1000000E+01  0.2858714E-15
  0.8843131E-01  0.5406810E-01  0.4912520E-01  -0.0000000E+00  0.1000000E+01  0.2858714E-15
           4
 -0.8843131E-01 -0.5406810E-01  0.4912520E-01  -0.4535165E-16 -0.0000000E+00  0.1000000E+01
  0.8843131E-01 -0.5406810E-01  0.4912520E-01  -0.4535165E-16 -0.0000000E+00  0.1000000E+01
  0.8843131E-01  0.5406810E-01  0.4912520E-01  -0.4535165E-16 -0.0000000E+00  0.1000000E+01
 -0.8843131E-01  0.5406810E-01  0.4912520E-01  -0.4535165E-16 -0.0000000E+00  0.1000000E+01
           4
 -0.1000695E+00  0.5406810E-01  0.1481498E-01  -0.9470023E+00 -0.1591236E-15  0.3212268E+00
 -0.1000695E+00 -0.5406810E-01  0.1481498E-01  -0.9470023E+00 -0.1591236E-15  0.3212268E+00
 -0.8843131E-01 -0.5406810E-01  0.4912520E-01  -0.9470023E+00 -0.1591236E-15  0.3212268E+00
 -0.8843131E-01  0.5406810E-01  0.4912520E-01  -0.9470023E+00 -0.1591236E-15  0.3212268E+00
 BRILLOUIN-ZONE-PRIMCELL_END
 BRILLOUIN-ZONE-CONVCELL
           4
  0.1000695E+00  0.5406810E-01 -0.1481498E-01   0.9470023E+00  0.2767366E-16 -0.3212268E+00
  0.1000695E+00 -0.5406810E-01 -0.1481498E-01   0.9470023E+00  0.2767366E-16 -0.3212268E+00
  0.8843131E-01 -0.5406810E-01 -0.4912520E-01   0.9470023E+00  0.2767366E-16 -0.3212268E+00
  0.8843131E-01  0.5406810E-01 -0.4912520E-01   0.9470023E+00  0.2767366E-16 -0.3212268E+00
           4
 -0.8843131E-01 -0.5406810E-01 -0.4912520E-01  -0.4535165E-16  0.0000000E+00 -0.1000000E+01
 -0.8843131E-01  0.5406810E-01 -0.4912520E-01  -0.4535165E-16  0.0000000E+00 -0.1000000E+01
  0.8843131E-01  0.5406810E-01 -0.4912520E-01  -0.4535165E-16  0.0000000E+00 -0.1000000E+01
  0.8843131E-01 -0.5406810E-01 -0.4912520E-01  -0.4535165E-16  0.0000000E+00 -0.1000000E+01
           6
  0.8843131E-01 -0.5406810E-01  0.4912520E-01   0.0000000E+00 -0.1000000E+01  0.5717427E-15
 -0.8843131E-01 -0.5406810E-01  0.4912520E-01   0.0000000E+00 -0.1000000E+01  0.5717427E-15
 -0.1000695E+00 -0.5406810E-01  0.1481498E-01   0.0000000E+00 -0.1000000E+01  0.5717427E-15
 -0.8843131E-01 -0.5406810E-01 -0.4912520E-01   0.0000000E+00 -0.1000000E+01  0.5717427E-15
  0.8843131E-01 -0.5406810E-01 -0.4912520E-01   0.0000000E+00 -0.1000000E+01  0.5717427E-15
  0.1000695E+00 -0.5406810E-01 -0.1481498E-01   0.0000000E+00 -0.1000000E+01  0.5717427E-15
           4
  0.8843131E-01  0.5406810E-01  0.4912520E-01   0.9838356E+00 -0.9256336E-16  0.1790742E+00
  0.8843131E-01 -0.5406810E-01  0.4912520E-01   0.9838356E+00 -0.9256336E-16  0.1790742E+00
  0.1000695E+00 -0.5406810E-01 -0.1481498E-01   0.9838356E+00 -0.9256336E-16  0.1790742E+00
  0.1000695E+00  0.5406810E-01 -0.1481498E-01   0.9838356E+00 -0.9256336E-16  0.1790742E+00
           4
 -0.8843131E-01  0.5406810E-01 -0.4912520E-01  -0.9838356E+00  0.3085445E-16 -0.1790742E+00
 -0.8843131E-01 -0.5406810E-01 -0.4912520E-01  -0.9838356E+00  0.3085445E-16 -0.1790742E+00
 -0.1000695E+00 -0.5406810E-01  0.1481498E-01  -0.9838356E+00  0.3085445E-16 -0.1790742E+00
 -0.1000695E+00  0.5406810E-01  0.1481498E-01  -0.9838356E+00  0.3085445E-16 -0.1790742E+00
           6
  0.1000695E+00  0.5406810E-01 -0.1481498E-01  -0.0000000E+00  0.1000000E+01  0.2858714E-15
  0.8843131E-01  0.5406810E-01 -0.4912520E-01  -0.0000000E+00  0.1000000E+01  0.2858714E-15
 -0.8843131E-01  0.5406810E-01 -0.4912520E-01  -0.0000000E+00  0.1000000E+01  0.2858714E-15
 -0.1000695E+00  0.5406810E-01  0.1481498E-01  -0.0000000E+00  0.1000000E+01  0.2858714E-15
 -0.8843131E-01  0.5406810E-01  0.4912520E-01  -0.0000000E+00  0.1000000E+01  0.2858714E-15
  0.8843131E-01  0.5406810E-01  0.4912520E-01  -0.0000000E+00  0.1000000E+01  0.2858714E-15
           4
 -0.8843131E-01 -0.5406810E-01  0.4912520E-01  -0.4535165E-16 -0.0000000E+00  0.1000000E+01
  0.8843131E-01 -0.5406810E-01  0.4912520E-01  -0.4535165E-16 -0.0000000E+00  0.1000000E+01
  0.8843131E-01  0.5406810E-01  0.4912520E-01  -0.4535165E-16 -0.0000000E+00  0.1000000E+01
 -0.8843131E-01  0.5406810E-01  0.4912520E-01  -0.4535165E-16 -0.0000000E+00  0.1000000E+01
           4
 -0.1000695E+00  0.5406810E-01  0.1481498E-01  -0.9470023E+00 -0.1591236E-15  0.3212268E+00
 -0.1000695E+00 -0.5406810E-01  0.1481498E-01  -0.9470023E+00 -0.1591236E-15  0.3212268E+00
 -0.8843131E-01 -0.5406810E-01  0.4912520E-01  -0.9470023E+00 -0.1591236E-15  0.3212268E+00
 -0.8843131E-01  0.5406810E-01  0.4912520E-01  -0.9470023E+00 -0.1591236E-15  0.3212268E+00
 BRILLOUIN-ZONE-CONVCELL_END
 ATOMS
   19    0.0000000000    4.6041201010    0.0000000000    0.0000000000    0.0003719600    0.0000000000
   19    2.6525083570    0.0626917660    0.0000000000    0.0000000000   -0.0004835500    0.0000000000
   12   -0.9262864850    9.2419633520    5.0890367380    0.0000000000   -0.0001379400    0.0000000000
   12   -0.9262864850    6.1503447330    5.0890367380    0.0000000000   -0.0001942000    0.0000000000
   12    1.7262218660    7.6389906500    5.0890367380    0.0000000000    0.0007959600    0.0000000000
   12    1.7262218660    1.5828296400    5.0890367380    0.0000000000   -0.0005386800    0.0000000000
   14    0.0359834520    1.5398718770    2.2775696270   -0.0001016600   -0.0004496200   -0.0000129800
   14    3.4164603860    1.5398718770    7.9005041450    0.0001016600   -0.0004496200    0.0000129800
   14    3.5021882860    7.6993780210    7.8379212590    0.0001360200    0.0000929800    0.0003924300
   14   -0.0497445640    7.6993780210    2.3401516070   -0.0001360200    0.0000929800   -0.0003924300
   14    2.6172592270    6.1821602190    2.3325682690   -0.0000156900    0.0005230900   -0.0002740400
   14    0.8351844070    6.1821602190    7.8455049020    0.0000156900    0.0005230900    0.0002740400
   13    0.7169145530    3.0815832720    7.8972992590    0.0001792100   -0.0000577400    0.0006079800
   13    2.7355290490    3.0815832720    2.2807740640   -0.0001792100   -0.0000577400   -0.0006079800
    8   -0.0548947750    1.5828869740    3.9367280660    0.0002916400   -0.0000261900   -0.0007104500
    8    3.5073384840    1.5828869740    6.2413451050   -0.0002916400   -0.0000261900    0.0007104500
    8    3.5014538230    7.6853241500    6.2145705940   -0.0002045600    0.0000638000    0.0008030900
    8   -0.0490100110    7.6853241500    3.9635028830    0.0002045600    0.0000638000   -0.0008030900
    8    2.6607932210    6.2425453570    3.9384958690    0.0002578600   -0.0000788100   -0.0007003800
    8    0.7916503590    6.2425453570    6.2395775970   -0.0002578600   -0.0000788100    0.0007003800
    8    0.6371092940    2.9899779370    6.1325903200    0.0004464400   -0.0004302800    0.0001998000
    8    2.8153345500    2.9899779370    4.0454825460   -0.0004464400   -0.0004302800   -0.0001998000
    8    1.5245451970    1.9126964410    1.7613572930   -0.0002257100    0.0002772800    0.0001795800
    8    1.9278984930    1.9126964410    8.4167155720    0.0002257100    0.0002772800   -0.0001795800
    8   -0.2693048110    9.2280734840    1.7709087810   -0.0000594900   -0.0000518800    0.0002200800
    8    3.7217484570    9.2280734840    8.4071645320    0.0000594900   -0.0000518800   -0.0002200800
    8    2.0703016170    7.1481700650    8.4430432270    0.0003164600   -0.0003903200   -0.0002130600
    8    1.3821420880    7.1481700650    1.7350304020   -0.0003164600   -0.0003903200    0.0002130600
    8    4.0216472450    6.8235974200    1.6867135610   -0.0000337800   -0.0002684100   -0.0000027000
    8   -0.5692034600    6.8235974200    8.4913600680    0.0000337800   -0.0002684100    0.0000027000
    8    2.4071414180    4.7045534180    1.6979718400   -0.0002881600    0.0001452000    0.0002206300
    8    1.0453019980    4.7045534180    8.4801016270    0.0002881600    0.0001452000   -0.0002206300
    8   -0.7824031060    2.4896348380    8.5982696570    0.0000938800    0.0000758900   -0.0001978400
    8    4.2348471280    2.4896348380    1.5798035140   -0.0000938800    0.0000758900    0.0001978400
    8   -0.1109498000    4.5564853160    3.9787428420   -0.0001600400    0.0000210500    0.0001921300
    8    3.5633935170    4.5564853160    6.1993309290    0.0001600400    0.0000210500   -0.0001921300
    8    2.6101474330    0.0039109380    4.0824046640    0.0002055500    0.0002786800    0.0009282500
    8    0.8422965570    0.0039109380    6.0956691170   -0.0002055500    0.0002786800   -0.0009282500
    1    0.8622834580    4.6129669290    4.0863339230   -0.0000708000    0.0000322000   -0.0001676900
    1    2.5901604890    4.6129669290    6.0917392480    0.0000708000    0.0000322000    0.0001676900
    1    2.6235782850    0.0983510010    3.1202013770   -0.0002454100   -0.0000132400    0.0002404100
    1    0.8288654970    0.0983510010    7.0578727000    0.0002454100   -0.0000132400   -0.0002404100
   22   -0.9262864850    3.1954484150    5.0890367380    0.0000000000    0.0006991100    0.0000000000
   19   -1.8525761690    4.6041201010   10.1780756930    0.0000000000    0.0003719600    0.0000000000
   19    0.7999321880    0.0626917660   10.1780756930    0.0000000000   -0.0004835500    0.0000000000
   19    5.3050178230    4.6041201010    0.0000000000    0.0000000000    0.0003719600    0.0000000000
   12    4.3787313380    9.2419633520    5.0890367380    0.0000000000   -0.0001379400    0.0000000000
   12    4.3787313380    6.1503447330    5.0890367380    0.0000000000   -0.0001942000    0.0000000000
   22    4.3787313380    3.1954484150    5.0890367380    0.0000000000    0.0006991100    0.0000000000
   19    3.4524416540    4.6041201010   10.1780756930    0.0000000000    0.0003719600    0.0000000000
 FRAMES
1      0.0000000000    0.0000000000    0.0000000000      5.3050178230    0.0000000000    0.0000000000
1      0.0000000000    0.0000000000    0.0000000000      0.0000000000    9.2475963560    0.0000000000
1      0.0000000000    0.0000000000    0.0000000000     -1.8525761690    0.0000000000   10.1780756930
1     -1.8525761690    0.0000000000   10.1780756930      3.4524416540    0.0000000000   10.1780756930
1     -1.8525761690    0.0000000000   10.1780756930     -1.8525761690    9.2475963560   10.1780756930
1      0.0000000000    9.2475963560    0.0000000000      5.3050178230    9.2475963560    0.0000000000
1      0.0000000000    9.2475963560    0.0000000000     -1.8525761690    9.2475963560   10.1780756930
1     -1.8525761690    9.2475963560   10.1780756930      3.4524416540    9.2475963560   10.1780756930
1      5.3050178230    0.0000000000    0.0000000000      5.3050178230    9.2475963560    0.0000000000
1      5.3050178230    0.0000000000    0.0000000000      3.4524416540    0.0000000000   10.1780756930
1      3.4524416540    0.0000000000   10.1780756930      3.4524416540    9.2475963560   10.1780756930
1      5.3050178230    9.2475963560    0.0000000000      3.4524416540    9.2475963560   10.1780756930
