 INFO
nunit      1    1    1
unit   cell
celltype   primcell
shape   parapipedal
 END_INFO
 DIM-GROUP
           3           1
 PRIMVEC
    5.2989900630    0.0000000000    0.0000000000
    0.0000000000    9.1953692500    0.0000000000
   -1.8126838200    0.0000000000   10.0463340640
 CONVVEC
    5.2989900630    0.0000000000    0.0000000000
    0.0000000000    9.1953692500    0.0000000000
   -1.8126838200    0.0000000000   10.0463340640
 PRIMCOORD
          44           1
 19      0.0000000000     4.5561121500     0.0000000000     0.0000000000     0.0001257500     0.0000000000
 19      2.6494950310     0.0231397630     0.0000000000     0.0000000000    -0.0001145000     0.0000000000
 12     -0.9063419100     0.0406915380     5.0231670320     0.0000000000    -0.0000919100     0.0000000000
 12     -0.9063419100     3.0645283390     5.0231670320     0.0000000000    -0.0001526100     0.0000000000
 12     -0.9063419100     6.1181388790     5.0231670320     0.0000000000    -0.0002204600     0.0000000000
 12      1.7431531220     4.5518484200     5.0231670320     0.0000000000     0.0009376900     0.0000000000
 12      1.7431531220     7.6580923170     5.0231670320     0.0000000000     0.0006272900     0.0000000000
 14      0.0211778090     1.5148148080     2.2178136860    -0.0000133500    -0.0000753800     0.0003171200
 14      3.4651283060     1.5148148080     7.8285206800     0.0000133500    -0.0000753800    -0.0003171200
 14      3.5573392120     7.6703439570     7.7547103820     0.0002454100    -0.0000129400    -0.0005847100
 14     -0.0710329680     7.6703439570     2.2916236820    -0.0002454100    -0.0000129400     0.0005847100
 14      2.5745640520     6.1265531350     2.2697381190    -0.0001376500     0.0000631300     0.0005960700
 14      0.9117422190     6.1265531350     7.7765957950     0.0001376500     0.0000631300    -0.0005960700
 13      0.8004663080     3.0439206430     7.8083630410     0.0000467300    -0.0003310400    -0.0003240400
 13      2.6858399350     3.0439206430     2.2379710230    -0.0000467300    -0.0003310400     0.0003240400
  8     -0.0934007470     1.5074395990     3.8449318210     0.0008421700    -0.0001214500     0.0005745900
  8      3.5797067790     1.5074395990     6.2014025350    -0.0008421700    -0.0001214500    -0.0005745900
  8      3.5270394820     7.6620728970     6.1360751910    -0.0002213900    -0.0007423700    -0.0007239500
  8     -0.0407332380     7.6620728970     3.9102588740     0.0002213900    -0.0007423700     0.0007239500
  8      2.6085432640     6.1459936210     3.8955187560     0.0000847300     0.0002417000     0.0006232600
  8      0.8777629790     6.1459936210     6.1508153090    -0.0000847300     0.0002417000    -0.0006232600
  8      0.8094561110     3.0988428190     6.0736486880     0.0007419700     0.0002451200    -0.0004732100
  8      2.6768501320     3.0988428190     3.9726853770    -0.0007419700     0.0002451200     0.0004732100
  8      1.5138373030     1.8527595230     1.6686279390    -0.0002893500    -0.0000375600    -0.0005331100
  8      1.9724689940     1.8527595230     8.3777058240     0.0002893500    -0.0000375600     0.0005331100
  8      4.9690226610     9.1638034190     1.6649150040    -0.0000054900     0.0000746400    -0.0003777600
  8     -1.4827163900     9.1638034190     8.3814189100     0.0000054900     0.0000746400     0.0003777600
  8      2.1154226170     7.1267567320     8.3566556830     0.0005279900    -0.0003205800    -0.0000628900
  8      1.3708836260     7.1267567320     1.6896783810    -0.0005279900    -0.0003205800     0.0000628900
  8      4.0167685060     6.7236970730     1.6821023900     0.0000170000    -0.0001460900    -0.0000290700
  8     -0.5304622630     6.7236970730     8.3642316750    -0.0000170000    -0.0001460900     0.0000290700
  8      2.3269930510     4.6692758550     1.6136252430    -0.0001056300    -0.0001536800     0.0002302200
  8      1.1593130060     4.6692758550     8.4327089720     0.0001056300    -0.0001536800    -0.0002302200
  8     -0.7560674000     2.5437282030     8.4802730320    -0.0003425800     0.0003302500     0.0003270900
  8      4.2423737230     2.5437282030     1.5660610320     0.0003425800     0.0003302500    -0.0003270900
  8     -0.0220800970     4.6379684110     3.9540516990     0.0003493400     0.0001052800     0.0001901700
  8      3.5083864200     4.6379684110     6.0922823660    -0.0003493400     0.0001052800    -0.0001901700
  8      2.6394126040     9.1455620400     3.9787221390     0.0001247400    -0.0003903100    -0.0006067700
  8      0.8468936940     9.1455620400     6.0676116240    -0.0001247400    -0.0003903100     0.0006067700
  1     -0.0175923860     4.5564118910     2.9922184700    -0.0000061700    -0.0000217100     0.0005962800
  1      3.5038987880     4.5564118910     7.0541155940     0.0000061700    -0.0000217100    -0.0005962800
  1      2.5621102260     0.1587156790     3.0373799920    -0.0004169400     0.0005274500     0.0005032000
  1      0.9241960170     0.1587156790     7.0089540730     0.0004169400     0.0005274500    -0.0005032000
 26      1.7431531220     1.5882059980     5.0231670320     0.0000000000     0.0004198500     0.0000000000
 CONVCOORD
          44           1
 19      0.0000000000     4.5561121500     0.0000000000
 19      2.6494950310     0.0231397630     0.0000000000
 12     -0.9063419100     0.0406915380     5.0231670320
 12     -0.9063419100     3.0645283390     5.0231670320
 12     -0.9063419100     6.1181388790     5.0231670320
 12      1.7431531220     4.5518484200     5.0231670320
 12      1.7431531220     7.6580923170     5.0231670320
 14      0.0211778090     1.5148148080     2.2178136860
 14      3.4651283060     1.5148148080     7.8285206800
 14      3.5573392120     7.6703439570     7.7547103820
 14     -0.0710329680     7.6703439570     2.2916236820
 14      2.5745640520     6.1265531350     2.2697381190
 14      0.9117422190     6.1265531350     7.7765957950
 13      0.8004663080     3.0439206430     7.8083630410
 13      2.6858399350     3.0439206430     2.2379710230
  8     -0.0934007470     1.5074395990     3.8449318210
  8      3.5797067790     1.5074395990     6.2014025350
  8      3.5270394820     7.6620728970     6.1360751910
  8     -0.0407332380     7.6620728970     3.9102588740
  8      2.6085432640     6.1459936210     3.8955187560
  8      0.8777629790     6.1459936210     6.1508153090
  8      0.8094561110     3.0988428190     6.0736486880
  8      2.6768501320     3.0988428190     3.9726853770
  8      1.5138373030     1.8527595230     1.6686279390
  8      1.9724689940     1.8527595230     8.3777058240
  8      4.9690226610     9.1638034190     1.6649150040
  8     -1.4827163900     9.1638034190     8.3814189100
  8      2.1154226170     7.1267567320     8.3566556830
  8      1.3708836260     7.1267567320     1.6896783810
  8      4.0167685060     6.7236970730     1.6821023900
  8     -0.5304622630     6.7236970730     8.3642316750
  8      2.3269930510     4.6692758550     1.6136252430
  8      1.1593130060     4.6692758550     8.4327089720
  8     -0.7560674000     2.5437282030     8.4802730320
  8      4.2423737230     2.5437282030     1.5660610320
  8     -0.0220800970     4.6379684110     3.9540516990
  8      3.5083864200     4.6379684110     6.0922823660
  8      2.6394126040     9.1455620400     3.9787221390
  8      0.8468936940     9.1455620400     6.0676116240
  1     -0.0175923860     4.5564118910     2.9922184700
  1      3.5038987880     4.5564118910     7.0541155940
  1      2.5621102260     0.1587156790     3.0373799920
  1      0.9241960170     0.1587156790     7.0089540730
 26      1.7431531220     1.5882059980     5.0231670320
 RECIP-PRIMVEC
    0.1887152057   -0.0000000000    0.0340503310

    0.0000000000    0.1087503909   -0.0000000000

    0.0000000000    0.0000000000    0.0995387963

 RECIP-CONVVEC
    0.1887152057   -0.0000000000    0.0340503310

    0.0000000000    0.1087503909   -0.0000000000

    0.0000000000    0.0000000000    0.0995387963

 WIGNER-SEITZ-PRIMCELL
           4
 -0.2649495E+01  0.4597685E+01 -0.4708646E+01  -0.3278435E+00 -0.1009766E-15 -0.9447320E+00
 -0.8368112E+00  0.4597685E+01 -0.5337688E+01  -0.3278435E+00 -0.1009766E-15 -0.9447320E+00
 -0.8368112E+00 -0.4597685E+01 -0.5337688E+01  -0.3278435E+00 -0.1009766E-15 -0.9447320E+00
 -0.2649495E+01 -0.4597685E+01 -0.4708646E+01  -0.3278435E+00 -0.1009766E-15 -0.9447320E+00
           4
 -0.2649495E+01  0.4597685E+01 -0.4708646E+01  -0.1000000E+01  0.4829488E-16  0.4554862E-32
 -0.2649495E+01 -0.4597685E+01 -0.4708646E+01  -0.1000000E+01  0.4829488E-16  0.4554862E-32
 -0.2649495E+01 -0.4597685E+01  0.4708646E+01  -0.1000000E+01  0.4829488E-16  0.4554862E-32
 -0.2649495E+01  0.4597685E+01  0.4708646E+01  -0.1000000E+01  0.4829488E-16  0.4554862E-32
           6
  0.2649495E+01 -0.4597685E+01  0.4708646E+01  -0.0000000E+00 -0.1000000E+01  0.1065828E-14
  0.8368112E+00 -0.4597685E+01  0.5337688E+01  -0.0000000E+00 -0.1000000E+01  0.1065828E-14
 -0.2649495E+01 -0.4597685E+01  0.4708646E+01  -0.0000000E+00 -0.1000000E+01  0.1065828E-14
 -0.2649495E+01 -0.4597685E+01 -0.4708646E+01  -0.0000000E+00 -0.1000000E+01  0.1065828E-14
 -0.8368112E+00 -0.4597685E+01 -0.5337688E+01  -0.0000000E+00 -0.1000000E+01  0.1065828E-14
  0.2649495E+01 -0.4597685E+01 -0.4708646E+01  -0.0000000E+00 -0.1000000E+01  0.1065828E-14
           4
  0.2649495E+01 -0.4597685E+01 -0.4708646E+01   0.1775651E+00 -0.2181216E-15 -0.9841091E+00
 -0.8368112E+00 -0.4597685E+01 -0.5337688E+01   0.1775651E+00 -0.2181216E-15 -0.9841091E+00
 -0.8368112E+00  0.4597685E+01 -0.5337688E+01   0.1775651E+00 -0.2181216E-15 -0.9841091E+00
  0.2649495E+01  0.4597685E+01 -0.4708646E+01   0.1775651E+00 -0.2181216E-15 -0.9841091E+00
           4
 -0.2649495E+01  0.4597685E+01  0.4708646E+01  -0.1775651E+00 -0.0000000E+00  0.9841091E+00
 -0.2649495E+01 -0.4597685E+01  0.4708646E+01  -0.1775651E+00 -0.0000000E+00  0.9841091E+00
  0.8368112E+00 -0.4597685E+01  0.5337688E+01  -0.1775651E+00 -0.0000000E+00  0.9841091E+00
  0.8368112E+00  0.4597685E+01  0.5337688E+01  -0.1775651E+00 -0.0000000E+00  0.9841091E+00
           6
  0.2649495E+01  0.4597685E+01 -0.4708646E+01   0.0000000E+00  0.1000000E+01  0.1065828E-14
 -0.8368112E+00  0.4597685E+01 -0.5337688E+01   0.0000000E+00  0.1000000E+01  0.1065828E-14
 -0.2649495E+01  0.4597685E+01 -0.4708646E+01   0.0000000E+00  0.1000000E+01  0.1065828E-14
 -0.2649495E+01  0.4597685E+01  0.4708646E+01   0.0000000E+00  0.1000000E+01  0.1065828E-14
  0.8368112E+00  0.4597685E+01  0.5337688E+01   0.0000000E+00  0.1000000E+01  0.1065828E-14
  0.2649495E+01  0.4597685E+01  0.4708646E+01   0.0000000E+00  0.1000000E+01  0.1065828E-14
           4
  0.2649495E+01  0.4597685E+01  0.4708646E+01   0.1000000E+01 -0.4829488E-16  0.0000000E+00
  0.2649495E+01 -0.4597685E+01  0.4708646E+01   0.1000000E+01 -0.4829488E-16  0.0000000E+00
  0.2649495E+01 -0.4597685E+01 -0.4708646E+01   0.1000000E+01 -0.4829488E-16  0.0000000E+00
  0.2649495E+01  0.4597685E+01 -0.4708646E+01   0.1000000E+01 -0.4829488E-16  0.0000000E+00
           4
  0.8368112E+00 -0.4597685E+01  0.5337688E+01   0.3278435E+00  0.3334111E-16  0.9447320E+00
  0.2649495E+01 -0.4597685E+01  0.4708646E+01   0.3278435E+00  0.3334111E-16  0.9447320E+00
  0.2649495E+01  0.4597685E+01  0.4708646E+01   0.3278435E+00  0.3334111E-16  0.9447320E+00
  0.8368112E+00  0.4597685E+01  0.5337688E+01   0.3278435E+00  0.3334111E-16  0.9447320E+00
 WIGNER-SEITZ-PRIMCELL_END
 WIGNER-SEITZ-CONVCELL
           4
 -0.2649495E+01  0.4597685E+01 -0.4708646E+01  -0.3278435E+00 -0.1009766E-15 -0.9447320E+00
 -0.8368112E+00  0.4597685E+01 -0.5337688E+01  -0.3278435E+00 -0.1009766E-15 -0.9447320E+00
 -0.8368112E+00 -0.4597685E+01 -0.5337688E+01  -0.3278435E+00 -0.1009766E-15 -0.9447320E+00
 -0.2649495E+01 -0.4597685E+01 -0.4708646E+01  -0.3278435E+00 -0.1009766E-15 -0.9447320E+00
           4
 -0.2649495E+01  0.4597685E+01 -0.4708646E+01  -0.1000000E+01  0.4829488E-16  0.4554862E-32
 -0.2649495E+01 -0.4597685E+01 -0.4708646E+01  -0.1000000E+01  0.4829488E-16  0.4554862E-32
 -0.2649495E+01 -0.4597685E+01  0.4708646E+01  -0.1000000E+01  0.4829488E-16  0.4554862E-32
 -0.2649495E+01  0.4597685E+01  0.4708646E+01  -0.1000000E+01  0.4829488E-16  0.4554862E-32
           6
  0.2649495E+01 -0.4597685E+01  0.4708646E+01  -0.0000000E+00 -0.1000000E+01  0.1065828E-14
  0.8368112E+00 -0.4597685E+01  0.5337688E+01  -0.0000000E+00 -0.1000000E+01  0.1065828E-14
 -0.2649495E+01 -0.4597685E+01  0.4708646E+01  -0.0000000E+00 -0.1000000E+01  0.1065828E-14
 -0.2649495E+01 -0.4597685E+01 -0.4708646E+01  -0.0000000E+00 -0.1000000E+01  0.1065828E-14
 -0.8368112E+00 -0.4597685E+01 -0.5337688E+01  -0.0000000E+00 -0.1000000E+01  0.1065828E-14
  0.2649495E+01 -0.4597685E+01 -0.4708646E+01  -0.0000000E+00 -0.1000000E+01  0.1065828E-14
           4
  0.2649495E+01 -0.4597685E+01 -0.4708646E+01   0.1775651E+00 -0.2181216E-15 -0.9841091E+00
 -0.8368112E+00 -0.4597685E+01 -0.5337688E+01   0.1775651E+00 -0.2181216E-15 -0.9841091E+00
 -0.8368112E+00  0.4597685E+01 -0.5337688E+01   0.1775651E+00 -0.2181216E-15 -0.9841091E+00
  0.2649495E+01  0.4597685E+01 -0.4708646E+01   0.1775651E+00 -0.2181216E-15 -0.9841091E+00
           4
 -0.2649495E+01  0.4597685E+01  0.4708646E+01  -0.1775651E+00 -0.0000000E+00  0.9841091E+00
 -0.2649495E+01 -0.4597685E+01  0.4708646E+01  -0.1775651E+00 -0.0000000E+00  0.9841091E+00
  0.8368112E+00 -0.4597685E+01  0.5337688E+01  -0.1775651E+00 -0.0000000E+00  0.9841091E+00
  0.8368112E+00  0.4597685E+01  0.5337688E+01  -0.1775651E+00 -0.0000000E+00  0.9841091E+00
           6
  0.2649495E+01  0.4597685E+01 -0.4708646E+01   0.0000000E+00  0.1000000E+01  0.1065828E-14
 -0.8368112E+00  0.4597685E+01 -0.5337688E+01   0.0000000E+00  0.1000000E+01  0.1065828E-14
 -0.2649495E+01  0.4597685E+01 -0.4708646E+01   0.0000000E+00  0.1000000E+01  0.1065828E-14
 -0.2649495E+01  0.4597685E+01  0.4708646E+01   0.0000000E+00  0.1000000E+01  0.1065828E-14
  0.8368112E+00  0.4597685E+01  0.5337688E+01   0.0000000E+00  0.1000000E+01  0.1065828E-14
  0.2649495E+01  0.4597685E+01  0.4708646E+01   0.0000000E+00  0.1000000E+01  0.1065828E-14
           4
  0.2649495E+01  0.4597685E+01  0.4708646E+01   0.1000000E+01 -0.4829488E-16  0.0000000E+00
  0.2649495E+01 -0.4597685E+01  0.4708646E+01   0.1000000E+01 -0.4829488E-16  0.0000000E+00
  0.2649495E+01 -0.4597685E+01 -0.4708646E+01   0.1000000E+01 -0.4829488E-16  0.0000000E+00
  0.2649495E+01  0.4597685E+01 -0.4708646E+01   0.1000000E+01 -0.4829488E-16  0.0000000E+00
           4
  0.8368112E+00 -0.4597685E+01  0.5337688E+01   0.3278435E+00  0.3334111E-16  0.9447320E+00
  0.2649495E+01 -0.4597685E+01  0.4708646E+01   0.3278435E+00  0.3334111E-16  0.9447320E+00
  0.2649495E+01  0.4597685E+01  0.4708646E+01   0.3278435E+00  0.3334111E-16  0.9447320E+00
  0.8368112E+00  0.4597685E+01  0.5337688E+01   0.3278435E+00  0.3334111E-16  0.9447320E+00
 WIGNER-SEITZ-CONVCELL_END
 BRILLOUIN-ZONE-PRIMCELL
           4
  0.1002657E+00  0.5437520E-01 -0.1571907E-01   0.9447320E+00  0.5532186E-16 -0.3278435E+00
  0.1002657E+00 -0.5437520E-01 -0.1571907E-01   0.9447320E+00  0.5532186E-16 -0.3278435E+00
  0.8844948E-01 -0.5437520E-01 -0.4976940E-01   0.9447320E+00  0.5532186E-16 -0.3278435E+00
  0.8844948E-01  0.5437520E-01 -0.4976940E-01   0.9447320E+00  0.5532186E-16 -0.3278435E+00
           4
 -0.8844948E-01  0.5437520E-01 -0.4976940E-01   0.0000000E+00 -0.5426985E-16 -0.1000000E+01
  0.8844948E-01  0.5437520E-01 -0.4976940E-01   0.0000000E+00 -0.5426985E-16 -0.1000000E+01
  0.8844948E-01 -0.5437520E-01 -0.4976940E-01   0.0000000E+00 -0.5426985E-16 -0.1000000E+01
 -0.8844948E-01 -0.5437520E-01 -0.4976940E-01   0.0000000E+00 -0.5426985E-16 -0.1000000E+01
           6
  0.8844948E-01 -0.5437520E-01  0.4976940E-01   0.0000000E+00 -0.1000000E+01  0.2879941E-15
 -0.8844948E-01 -0.5437520E-01  0.4976940E-01   0.0000000E+00 -0.1000000E+01  0.2879941E-15
 -0.1002657E+00 -0.5437520E-01  0.1571907E-01   0.0000000E+00 -0.1000000E+01  0.2879941E-15
 -0.8844948E-01 -0.5437520E-01 -0.4976940E-01   0.0000000E+00 -0.1000000E+01  0.2879941E-15
  0.8844948E-01 -0.5437520E-01 -0.4976940E-01   0.0000000E+00 -0.1000000E+01  0.2879941E-15
  0.1002657E+00 -0.5437520E-01 -0.1571907E-01   0.0000000E+00 -0.1000000E+01  0.2879941E-15
           4
  0.8844948E-01  0.5437520E-01  0.4976940E-01   0.9841091E+00 -0.3370857E-15  0.1775651E+00
  0.8844948E-01 -0.5437520E-01  0.4976940E-01   0.9841091E+00 -0.3370857E-15  0.1775651E+00
  0.1002657E+00 -0.5437520E-01 -0.1571907E-01   0.9841091E+00 -0.3370857E-15  0.1775651E+00
  0.1002657E+00  0.5437520E-01 -0.1571907E-01   0.9841091E+00 -0.3370857E-15  0.1775651E+00
           4
 -0.8844948E-01  0.5437520E-01 -0.4976940E-01  -0.9841091E+00 -0.1498159E-15 -0.1775651E+00
 -0.8844948E-01 -0.5437520E-01 -0.4976940E-01  -0.9841091E+00 -0.1498159E-15 -0.1775651E+00
 -0.1002657E+00 -0.5437520E-01  0.1571907E-01  -0.9841091E+00 -0.1498159E-15 -0.1775651E+00
 -0.1002657E+00  0.5437520E-01  0.1571907E-01  -0.9841091E+00 -0.1498159E-15 -0.1775651E+00
           6
  0.1002657E+00  0.5437520E-01 -0.1571907E-01  -0.0000000E+00  0.1000000E+01  0.2879941E-15
  0.8844948E-01  0.5437520E-01 -0.4976940E-01  -0.0000000E+00  0.1000000E+01  0.2879941E-15
 -0.8844948E-01  0.5437520E-01 -0.4976940E-01  -0.0000000E+00  0.1000000E+01  0.2879941E-15
 -0.1002657E+00  0.5437520E-01  0.1571907E-01  -0.0000000E+00  0.1000000E+01  0.2879941E-15
 -0.8844948E-01  0.5437520E-01  0.4976940E-01  -0.0000000E+00  0.1000000E+01  0.2879941E-15
  0.8844948E-01  0.5437520E-01  0.4976940E-01  -0.0000000E+00  0.1000000E+01  0.2879941E-15
           4
  0.8844948E-01 -0.5437520E-01  0.4976940E-01  -0.0000000E+00 -0.0000000E+00  0.1000000E+01
  0.8844948E-01  0.5437520E-01  0.4976940E-01  -0.0000000E+00 -0.0000000E+00  0.1000000E+01
 -0.8844948E-01  0.5437520E-01  0.4976940E-01  -0.0000000E+00 -0.0000000E+00  0.1000000E+01
 -0.8844948E-01 -0.5437520E-01  0.4976940E-01  -0.0000000E+00 -0.0000000E+00  0.1000000E+01
           4
 -0.1002657E+00  0.5437520E-01  0.1571907E-01  -0.9447320E+00 -0.1383046E-15  0.3278435E+00
 -0.1002657E+00 -0.5437520E-01  0.1571907E-01  -0.9447320E+00 -0.1383046E-15  0.3278435E+00
 -0.8844948E-01 -0.5437520E-01  0.4976940E-01  -0.9447320E+00 -0.1383046E-15  0.3278435E+00
 -0.8844948E-01  0.5437520E-01  0.4976940E-01  -0.9447320E+00 -0.1383046E-15  0.3278435E+00
 BRILLOUIN-ZONE-PRIMCELL_END
 BRILLOUIN-ZONE-CONVCELL
           4
  0.1002657E+00  0.5437520E-01 -0.1571907E-01   0.9447320E+00  0.5532186E-16 -0.3278435E+00
  0.1002657E+00 -0.5437520E-01 -0.1571907E-01   0.9447320E+00  0.5532186E-16 -0.3278435E+00
  0.8844948E-01 -0.5437520E-01 -0.4976940E-01   0.9447320E+00  0.5532186E-16 -0.3278435E+00
  0.8844948E-01  0.5437520E-01 -0.4976940E-01   0.9447320E+00  0.5532186E-16 -0.3278435E+00
           4
 -0.8844948E-01  0.5437520E-01 -0.4976940E-01   0.0000000E+00 -0.5426985E-16 -0.1000000E+01
  0.8844948E-01  0.5437520E-01 -0.4976940E-01   0.0000000E+00 -0.5426985E-16 -0.1000000E+01
  0.8844948E-01 -0.5437520E-01 -0.4976940E-01   0.0000000E+00 -0.5426985E-16 -0.1000000E+01
 -0.8844948E-01 -0.5437520E-01 -0.4976940E-01   0.0000000E+00 -0.5426985E-16 -0.1000000E+01
           6
  0.8844948E-01 -0.5437520E-01  0.4976940E-01   0.0000000E+00 -0.1000000E+01  0.2879941E-15
 -0.8844948E-01 -0.5437520E-01  0.4976940E-01   0.0000000E+00 -0.1000000E+01  0.2879941E-15
 -0.1002657E+00 -0.5437520E-01  0.1571907E-01   0.0000000E+00 -0.1000000E+01  0.2879941E-15
 -0.8844948E-01 -0.5437520E-01 -0.4976940E-01   0.0000000E+00 -0.1000000E+01  0.2879941E-15
  0.8844948E-01 -0.5437520E-01 -0.4976940E-01   0.0000000E+00 -0.1000000E+01  0.2879941E-15
  0.1002657E+00 -0.5437520E-01 -0.1571907E-01   0.0000000E+00 -0.1000000E+01  0.2879941E-15
           4
  0.8844948E-01  0.5437520E-01  0.4976940E-01   0.9841091E+00 -0.3370857E-15  0.1775651E+00
  0.8844948E-01 -0.5437520E-01  0.4976940E-01   0.9841091E+00 -0.3370857E-15  0.1775651E+00
  0.1002657E+00 -0.5437520E-01 -0.1571907E-01   0.9841091E+00 -0.3370857E-15  0.1775651E+00
  0.1002657E+00  0.5437520E-01 -0.1571907E-01   0.9841091E+00 -0.3370857E-15  0.1775651E+00
           4
 -0.8844948E-01  0.5437520E-01 -0.4976940E-01  -0.9841091E+00 -0.1498159E-15 -0.1775651E+00
 -0.8844948E-01 -0.5437520E-01 -0.4976940E-01  -0.9841091E+00 -0.1498159E-15 -0.1775651E+00
 -0.1002657E+00 -0.5437520E-01  0.1571907E-01  -0.9841091E+00 -0.1498159E-15 -0.1775651E+00
 -0.1002657E+00  0.5437520E-01  0.1571907E-01  -0.9841091E+00 -0.1498159E-15 -0.1775651E+00
           6
  0.1002657E+00  0.5437520E-01 -0.1571907E-01  -0.0000000E+00  0.1000000E+01  0.2879941E-15
  0.8844948E-01  0.5437520E-01 -0.4976940E-01  -0.0000000E+00  0.1000000E+01  0.2879941E-15
 -0.8844948E-01  0.5437520E-01 -0.4976940E-01  -0.0000000E+00  0.1000000E+01  0.2879941E-15
 -0.1002657E+00  0.5437520E-01  0.1571907E-01  -0.0000000E+00  0.1000000E+01  0.2879941E-15
 -0.8844948E-01  0.5437520E-01  0.4976940E-01  -0.0000000E+00  0.1000000E+01  0.2879941E-15
  0.8844948E-01  0.5437520E-01  0.4976940E-01  -0.0000000E+00  0.1000000E+01  0.2879941E-15
           4
  0.8844948E-01 -0.5437520E-01  0.4976940E-01  -0.0000000E+00 -0.0000000E+00  0.1000000E+01
  0.8844948E-01  0.5437520E-01  0.4976940E-01  -0.0000000E+00 -0.0000000E+00  0.1000000E+01
 -0.8844948E-01  0.5437520E-01  0.4976940E-01  -0.0000000E+00 -0.0000000E+00  0.1000000E+01
 -0.8844948E-01 -0.5437520E-01  0.4976940E-01  -0.0000000E+00 -0.0000000E+00  0.1000000E+01
           4
 -0.1002657E+00  0.5437520E-01  0.1571907E-01  -0.9447320E+00 -0.1383046E-15  0.3278435E+00
 -0.1002657E+00 -0.5437520E-01  0.1571907E-01  -0.9447320E+00 -0.1383046E-15  0.3278435E+00
 -0.8844948E-01 -0.5437520E-01  0.4976940E-01  -0.9447320E+00 -0.1383046E-15  0.3278435E+00
 -0.8844948E-01  0.5437520E-01  0.4976940E-01  -0.9447320E+00 -0.1383046E-15  0.3278435E+00
 BRILLOUIN-ZONE-CONVCELL_END
 ATOMS
   19    0.0000000000    4.5561121500    0.0000000000    0.0000000000    0.0001257500    0.0000000000
   19    2.6494950310    0.0231397630    0.0000000000    0.0000000000   -0.0001145000    0.0000000000
   12   -0.9063419100    0.0406915380    5.0231670320    0.0000000000   -0.0000919100    0.0000000000
   12   -0.9063419100    3.0645283390    5.0231670320    0.0000000000   -0.0001526100    0.0000000000
   12   -0.9063419100    6.1181388790    5.0231670320    0.0000000000   -0.0002204600    0.0000000000
   12    1.7431531220    4.5518484200    5.0231670320    0.0000000000    0.0009376900    0.0000000000
   12    1.7431531220    7.6580923170    5.0231670320    0.0000000000    0.0006272900    0.0000000000
   14    0.0211778090    1.5148148080    2.2178136860   -0.0000133500   -0.0000753800    0.0003171200
   14    3.4651283060    1.5148148080    7.8285206800    0.0000133500   -0.0000753800   -0.0003171200
   14    3.5573392120    7.6703439570    7.7547103820    0.0002454100   -0.0000129400   -0.0005847100
   14   -0.0710329680    7.6703439570    2.2916236820   -0.0002454100   -0.0000129400    0.0005847100
   14    2.5745640520    6.1265531350    2.2697381190   -0.0001376500    0.0000631300    0.0005960700
   14    0.9117422190    6.1265531350    7.7765957950    0.0001376500    0.0000631300   -0.0005960700
   13    0.8004663080    3.0439206430    7.8083630410    0.0000467300   -0.0003310400   -0.0003240400
   13    2.6858399350    3.0439206430    2.2379710230   -0.0000467300   -0.0003310400    0.0003240400
    8   -0.0934007470    1.5074395990    3.8449318210    0.0008421700   -0.0001214500    0.0005745900
    8    3.5797067790    1.5074395990    6.2014025350   -0.0008421700   -0.0001214500   -0.0005745900
    8    3.5270394820    7.6620728970    6.1360751910   -0.0002213900   -0.0007423700   -0.0007239500
    8   -0.0407332380    7.6620728970    3.9102588740    0.0002213900   -0.0007423700    0.0007239500
    8    2.6085432640    6.1459936210    3.8955187560    0.0000847300    0.0002417000    0.0006232600
    8    0.8777629790    6.1459936210    6.1508153090   -0.0000847300    0.0002417000   -0.0006232600
    8    0.8094561110    3.0988428190    6.0736486880    0.0007419700    0.0002451200   -0.0004732100
    8    2.6768501320    3.0988428190    3.9726853770   -0.0007419700    0.0002451200    0.0004732100
    8    1.5138373030    1.8527595230    1.6686279390   -0.0002893500   -0.0000375600   -0.0005331100
    8    1.9724689940    1.8527595230    8.3777058240    0.0002893500   -0.0000375600    0.0005331100
    8    4.9690226610    9.1638034190    1.6649150040   -0.0000054900    0.0000746400   -0.0003777600
    8   -1.4827163900    9.1638034190    8.3814189100    0.0000054900    0.0000746400    0.0003777600
    8    2.1154226170    7.1267567320    8.3566556830    0.0005279900   -0.0003205800   -0.0000628900
    8    1.3708836260    7.1267567320    1.6896783810   -0.0005279900   -0.0003205800    0.0000628900
    8    4.0167685060    6.7236970730    1.6821023900    0.0000170000   -0.0001460900   -0.0000290700
    8   -0.5304622630    6.7236970730    8.3642316750   -0.0000170000   -0.0001460900    0.0000290700
    8    2.3269930510    4.6692758550    1.6136252430   -0.0001056300   -0.0001536800    0.0002302200
    8    1.1593130060    4.6692758550    8.4327089720    0.0001056300   -0.0001536800   -0.0002302200
    8   -0.7560674000    2.5437282030    8.4802730320   -0.0003425800    0.0003302500    0.0003270900
    8    4.2423737230    2.5437282030    1.5660610320    0.0003425800    0.0003302500   -0.0003270900
    8   -0.0220800970    4.6379684110    3.9540516990    0.0003493400    0.0001052800    0.0001901700
    8    3.5083864200    4.6379684110    6.0922823660   -0.0003493400    0.0001052800   -0.0001901700
    8    2.6394126040    9.1455620400    3.9787221390    0.0001247400   -0.0003903100   -0.0006067700
    8    0.8468936940    9.1455620400    6.0676116240   -0.0001247400   -0.0003903100    0.0006067700
    1   -0.0175923860    4.5564118910    2.9922184700   -0.0000061700   -0.0000217100    0.0005962800
    1    3.5038987880    4.5564118910    7.0541155940    0.0000061700   -0.0000217100   -0.0005962800
    1    2.5621102260    0.1587156790    3.0373799920   -0.0004169400    0.0005274500    0.0005032000
    1    0.9241960170    0.1587156790    7.0089540730    0.0004169400    0.0005274500   -0.0005032000
   26    1.7431531220    1.5882059980    5.0231670320    0.0000000000    0.0004198500    0.0000000000
   19   -1.8126838200    4.5561121500   10.0463340640    0.0000000000    0.0001257500    0.0000000000
   19    0.8368112110    0.0231397630   10.0463340640    0.0000000000   -0.0001145000    0.0000000000
   19    5.2989900630    4.5561121500    0.0000000000    0.0000000000    0.0001257500    0.0000000000
   12    4.3926481530    0.0406915380    5.0231670320    0.0000000000   -0.0000919100    0.0000000000
   12    4.3926481530    3.0645283390    5.0231670320    0.0000000000   -0.0001526100    0.0000000000
   12    4.3926481530    6.1181388790    5.0231670320    0.0000000000   -0.0002204600    0.0000000000
   19    3.4863062430    4.5561121500   10.0463340640    0.0000000000    0.0001257500    0.0000000000
 FRAMES
1      0.0000000000    0.0000000000    0.0000000000      5.2989900630    0.0000000000    0.0000000000
1      0.0000000000    0.0000000000    0.0000000000      0.0000000000    9.1953692500    0.0000000000
1      0.0000000000    0.0000000000    0.0000000000     -1.8126838200    0.0000000000   10.0463340640
1     -1.8126838200    0.0000000000   10.0463340640      3.4863062430    0.0000000000   10.0463340640
1     -1.8126838200    0.0000000000   10.0463340640     -1.8126838200    9.1953692500   10.0463340640
1      0.0000000000    9.1953692500    0.0000000000      5.2989900630    9.1953692500    0.0000000000
1      0.0000000000    9.1953692500    0.0000000000     -1.8126838200    9.1953692500   10.0463340640
1     -1.8126838200    9.1953692500   10.0463340640      3.4863062430    9.1953692500   10.0463340640
1      5.2989900630    0.0000000000    0.0000000000      5.2989900630    9.1953692500    0.0000000000
1      5.2989900630    0.0000000000    0.0000000000      3.4863062430    0.0000000000   10.0463340640
1      3.4863062430    0.0000000000   10.0463340640      3.4863062430    9.1953692500   10.0463340640
1      5.2989900630    9.1953692500    0.0000000000      3.4863062430    9.1953692500   10.0463340640
