 INFO
nunit      1    1    1
unit   cell
celltype   primcell
shape   parapipedal
 END_INFO
 DIM-GROUP
           3           1
 PRIMVEC
    5.3495742220    0.0000000000    0.0000000000
    0.0000000000    9.2918426630    0.0000000000
   -1.8765207530    0.0000000000   10.2823404840
 CONVVEC
    5.3495742220    0.0000000000    0.0000000000
    0.0000000000    9.2918426630    0.0000000000
   -1.8765207530    0.0000000000   10.2823404840
 PRIMCOORD
          44           1
 19      0.0000000000     4.5296095710     0.0000000000     0.0000000000    -0.0009120900     0.0000000000
 19      2.6747874020     0.0983801130     0.0000000000     0.0000000000     0.0008371300     0.0000000000
 12     -0.9382609340     3.1136942690     5.1411697490     0.0000000000    -0.0004252100     0.0000000000
 12     -0.9382609340     6.1593354230     5.1411697490     0.0000000000     0.0005129600     0.0000000000
 12      1.7365264680     4.5754507690     5.1411697490     0.0000000000     0.0002596100     0.0000000000
 12      1.7365264680     7.7278226420     5.1411697490     0.0000000000     0.0002714000     0.0000000000
 12      1.7365264680     1.6310836650     5.1411697490     0.0000000000    -0.0005519400     0.0000000000
 14      0.0333475830     1.5430917480     2.3187606970    -0.0001670000    -0.0001189700     0.0000056400
 14      3.4397051110     1.5430917480     7.9635792530     0.0001670000    -0.0001189700    -0.0000056400
 14      3.5460442180     7.7435252980     7.8926298220     0.0001933100     0.0001261400     0.0003401200
 14     -0.0729914180     7.7435252980     2.3897099840    -0.0001933100     0.0001261400    -0.0003401200
 14      2.5955060130     6.1971440040     2.3713159930    -0.0001484100    -0.0000726900    -0.0003010600
 14      0.8775470840     6.1971440040     7.9110235060     0.0001484100    -0.0000726900     0.0003010600
 13      0.7634614010     3.0797092090     7.9354279740     0.0002025200     0.0001476100     0.0000840900
 13      2.7095913800     3.0797092090     2.3469115240    -0.0002025200     0.0001476100    -0.0000840900
  8     -0.0164972300     1.5812922750     3.9573934060     0.0003973700     0.0000669400    -0.0002647000
  8      3.4895500320     1.5812922750     6.3249463900    -0.0003973700     0.0000669400     0.0002647000
  8      3.5108358560     7.6842835740     6.2680583950     0.0000462300    -0.0000775100     0.0006105700
  8     -0.0377828390     7.6842835740     4.0142811030    -0.0000462300    -0.0000775100    -0.0006105700
  8      2.6201265840     6.2195861170     4.0031254380    -0.0001477600     0.0002600300    -0.0005000400
  8      0.8529264570     6.2195861170     6.2792143680     0.0001477600     0.0002600300     0.0005000400
  8      0.7957140220     3.0936795900     6.1974390700     0.0001797500     0.0001162100     0.0001608000
  8      2.6773388100     3.0936795900     4.0849001200    -0.0001797500     0.0001162100    -0.0001608000
  8      1.4965868370     1.9430073390     1.7271508410     0.0001692000    -0.0000590600     0.0004184400
  8      1.9764663380     1.9430073390     8.5551882050    -0.0001692000    -0.0000590600    -0.0004184400
  8      5.0798186530     9.2639262610     1.7972720620    -0.0003101400     0.0001225800     0.0000899700
  8     -1.6067655670     9.2639262610     8.4850669730     0.0003101400     0.0001225800    -0.0000899700
  8      2.1227498990     7.1504543110     8.4992479640    -0.0001074900     0.0003018200    -0.0007651700
  8      1.3503028280     7.1504543110     1.7830918330     0.0001074900     0.0003018200     0.0007651700
  8      4.0150161390     6.8597847990     1.7832634240     0.0000053600    -0.0002211500     0.0005004100
  8     -0.5419631780     6.8597847990     8.4990763830    -0.0000053600    -0.0002211500    -0.0005004100
  8      2.4131507190     4.7241230440     1.7239495470    -0.0002519500     0.0000109300    -0.0003942000
  8      1.0599019250     4.7241230440     8.5583897970     0.0002519500     0.0000109300     0.0003942000
  8     -0.7774016410     2.5179963360     8.6076338130     0.0002422700    -0.0003802600    -0.0003728200
  8      4.2504546020     2.5179963360     1.6747059940    -0.0002422700    -0.0003802600     0.0003728200
  8     -0.0352732430     4.6800124640     4.0859425350    -0.0003447700    -0.0001469400     0.0001387100
  8      3.5083263350     4.6800124640     6.1963969630     0.0003447700    -0.0001469400    -0.0001387100
  8      2.5913619560     9.2903564020     4.0949074750    -0.0009050700     0.0001170900     0.0001525000
  8      0.8816911410     9.2903564020     6.1874320230     0.0009050700     0.0001170900    -0.0001525000
  1     -0.0233182270     4.6075294210     3.1223525340    -0.0001221300     0.0002271800     0.0000238900
  1      3.4963714850     4.6075294210     7.1599869650     0.0001221300     0.0002271800    -0.0000238900
  1      2.5732321710     0.0973733220     3.1277263000     0.0003253000    -0.0002597100     0.0003540500
  1      0.8998208220     0.0973733220     7.1546128900    -0.0003253000    -0.0002597100    -0.0003540500
 22     -0.9382609340     0.0313527020     5.1411697490     0.0000000000    -0.0003123200     0.0000000000
 CONVCOORD
          44           1
 19      0.0000000000     4.5296095710     0.0000000000
 19      2.6747874020     0.0983801130     0.0000000000
 12     -0.9382609340     3.1136942690     5.1411697490
 12     -0.9382609340     6.1593354230     5.1411697490
 12      1.7365264680     4.5754507690     5.1411697490
 12      1.7365264680     7.7278226420     5.1411697490
 12      1.7365264680     1.6310836650     5.1411697490
 14      0.0333475830     1.5430917480     2.3187606970
 14      3.4397051110     1.5430917480     7.9635792530
 14      3.5460442180     7.7435252980     7.8926298220
 14     -0.0729914180     7.7435252980     2.3897099840
 14      2.5955060130     6.1971440040     2.3713159930
 14      0.8775470840     6.1971440040     7.9110235060
 13      0.7634614010     3.0797092090     7.9354279740
 13      2.7095913800     3.0797092090     2.3469115240
  8     -0.0164972300     1.5812922750     3.9573934060
  8      3.4895500320     1.5812922750     6.3249463900
  8      3.5108358560     7.6842835740     6.2680583950
  8     -0.0377828390     7.6842835740     4.0142811030
  8      2.6201265840     6.2195861170     4.0031254380
  8      0.8529264570     6.2195861170     6.2792143680
  8      0.7957140220     3.0936795900     6.1974390700
  8      2.6773388100     3.0936795900     4.0849001200
  8      1.4965868370     1.9430073390     1.7271508410
  8      1.9764663380     1.9430073390     8.5551882050
  8     -0.2697555690     9.2639262610     1.7972720620
  8     -1.6067655670     9.2639262610     8.4850669730
  8      2.1227498990     7.1504543110     8.4992479640
  8      1.3503028280     7.1504543110     1.7830918330
  8      4.0150161390     6.8597847990     1.7832634240
  8     -0.5419631780     6.8597847990     8.4990763830
  8      2.4131507190     4.7241230440     1.7239495470
  8      1.0599019250     4.7241230440     8.5583897970
  8     -0.7774016410     2.5179963360     8.6076338130
  8      4.2504546020     2.5179963360     1.6747059940
  8     -0.0352732430     4.6800124640     4.0859425350
  8      3.5083263350     4.6800124640     6.1963969630
  8      2.5913619560     9.2903564020     4.0949074750
  8      0.8816911410     9.2903564020     6.1874320230
  1     -0.0233182270     4.6075294210     3.1223525340
  1      3.4963714850     4.6075294210     7.1599869650
  1      2.5732321710     0.0973733220     3.1277263000
  1      0.8998208220     0.0973733220     7.1546128900
 22     -0.9382609340     0.0313527020     5.1411697490
 RECIP-PRIMVEC
    0.1869307647   -0.0000000000    0.0341147485

    0.0000000000    0.1076212799   -0.0000000000

    0.0000000000    0.0000000000    0.0972541224

 RECIP-CONVVEC
    0.1869307647   -0.0000000000    0.0341147485

    0.0000000000    0.1076212799   -0.0000000000

    0.0000000000    0.0000000000    0.0972541224

 WIGNER-SEITZ-PRIMCELL
           4
 -0.2674787E+01  0.4645921E+01 -0.4824255E+01  -0.3200072E+00 -0.1134824E-15 -0.9474151E+00
 -0.7982664E+00  0.4645921E+01 -0.5458085E+01  -0.3200072E+00 -0.1134824E-15 -0.9474151E+00
 -0.7982664E+00 -0.4645921E+01 -0.5458085E+01  -0.3200072E+00 -0.1134824E-15 -0.9474151E+00
 -0.2674787E+01 -0.4645921E+01 -0.4824255E+01  -0.3200072E+00 -0.1134824E-15 -0.9474151E+00
           4
 -0.2674787E+01  0.4645921E+01 -0.4824255E+01  -0.1000000E+01  0.4779345E-16 -0.0000000E+00
 -0.2674787E+01 -0.4645921E+01 -0.4824255E+01  -0.1000000E+01  0.4779345E-16 -0.0000000E+00
 -0.2674787E+01 -0.4645921E+01  0.4824255E+01  -0.1000000E+01  0.4779345E-16 -0.0000000E+00
 -0.2674787E+01  0.4645921E+01  0.4824255E+01  -0.1000000E+01  0.4779345E-16 -0.0000000E+00
           6
  0.2674787E+01 -0.4645921E+01  0.4824255E+01  -0.0000000E+00 -0.1000000E+01  0.0000000E+00
  0.7982664E+00 -0.4645921E+01  0.5458085E+01  -0.0000000E+00 -0.1000000E+01  0.0000000E+00
 -0.2674787E+01 -0.4645921E+01  0.4824255E+01  -0.0000000E+00 -0.1000000E+01  0.0000000E+00
 -0.2674787E+01 -0.4645921E+01 -0.4824255E+01  -0.0000000E+00 -0.1000000E+01  0.0000000E+00
 -0.7982664E+00 -0.4645921E+01 -0.5458085E+01  -0.0000000E+00 -0.1000000E+01  0.0000000E+00
  0.2674787E+01 -0.4645921E+01 -0.4824255E+01  -0.0000000E+00 -0.1000000E+01  0.0000000E+00
           4
  0.2674787E+01  0.4645921E+01 -0.4824255E+01   0.1795341E+00 -0.1083010E-15 -0.9837518E+00
  0.2674787E+01 -0.4645921E+01 -0.4824255E+01   0.1795341E+00 -0.1083010E-15 -0.9837518E+00
 -0.7982664E+00 -0.4645921E+01 -0.5458085E+01   0.1795341E+00 -0.1083010E-15 -0.9837518E+00
 -0.7982664E+00  0.4645921E+01 -0.5458085E+01   0.1795341E+00 -0.1083010E-15 -0.9837518E+00
           4
  0.7982664E+00  0.4645921E+01  0.5458085E+01  -0.1795341E+00  0.6882297E-16  0.9837518E+00
 -0.2674787E+01  0.4645921E+01  0.4824255E+01  -0.1795341E+00  0.6882297E-16  0.9837518E+00
 -0.2674787E+01 -0.4645921E+01  0.4824255E+01  -0.1795341E+00  0.6882297E-16  0.9837518E+00
  0.7982664E+00 -0.4645921E+01  0.5458085E+01  -0.1795341E+00  0.6882297E-16  0.9837518E+00
           6
  0.2674787E+01  0.4645921E+01 -0.4824255E+01   0.0000000E+00  0.1000000E+01  0.5238876E-15
 -0.7982664E+00  0.4645921E+01 -0.5458085E+01   0.0000000E+00  0.1000000E+01  0.5238876E-15
 -0.2674787E+01  0.4645921E+01 -0.4824255E+01   0.0000000E+00  0.1000000E+01  0.5238876E-15
 -0.2674787E+01  0.4645921E+01  0.4824255E+01   0.0000000E+00  0.1000000E+01  0.5238876E-15
  0.7982664E+00  0.4645921E+01  0.5458085E+01   0.0000000E+00  0.1000000E+01  0.5238876E-15
  0.2674787E+01  0.4645921E+01  0.4824255E+01   0.0000000E+00  0.1000000E+01  0.5238876E-15
           4
  0.2674787E+01  0.4645921E+01  0.4824255E+01   0.1000000E+01 -0.4779345E-16 -0.4399551E-32
  0.2674787E+01 -0.4645921E+01  0.4824255E+01   0.1000000E+01 -0.4779345E-16 -0.4399551E-32
  0.2674787E+01 -0.4645921E+01 -0.4824255E+01   0.1000000E+01 -0.4779345E-16 -0.4399551E-32
  0.2674787E+01  0.4645921E+01 -0.4824255E+01   0.1000000E+01 -0.4779345E-16 -0.4399551E-32
           4
  0.2674787E+01 -0.4645921E+01  0.4824255E+01   0.3200072E+00  0.9651955E-16  0.9474151E+00
  0.2674787E+01  0.4645921E+01  0.4824255E+01   0.3200072E+00  0.9651955E-16  0.9474151E+00
  0.7982664E+00  0.4645921E+01  0.5458085E+01   0.3200072E+00  0.9651955E-16  0.9474151E+00
  0.7982664E+00 -0.4645921E+01  0.5458085E+01   0.3200072E+00  0.9651955E-16  0.9474151E+00
 WIGNER-SEITZ-PRIMCELL_END
 WIGNER-SEITZ-CONVCELL
           4
 -0.2674787E+01  0.4645921E+01 -0.4824255E+01  -0.3200072E+00 -0.1134824E-15 -0.9474151E+00
 -0.7982664E+00  0.4645921E+01 -0.5458085E+01  -0.3200072E+00 -0.1134824E-15 -0.9474151E+00
 -0.7982664E+00 -0.4645921E+01 -0.5458085E+01  -0.3200072E+00 -0.1134824E-15 -0.9474151E+00
 -0.2674787E+01 -0.4645921E+01 -0.4824255E+01  -0.3200072E+00 -0.1134824E-15 -0.9474151E+00
           4
 -0.2674787E+01  0.4645921E+01 -0.4824255E+01  -0.1000000E+01  0.4779345E-16 -0.0000000E+00
 -0.2674787E+01 -0.4645921E+01 -0.4824255E+01  -0.1000000E+01  0.4779345E-16 -0.0000000E+00
 -0.2674787E+01 -0.4645921E+01  0.4824255E+01  -0.1000000E+01  0.4779345E-16 -0.0000000E+00
 -0.2674787E+01  0.4645921E+01  0.4824255E+01  -0.1000000E+01  0.4779345E-16 -0.0000000E+00
           6
  0.2674787E+01 -0.4645921E+01  0.4824255E+01  -0.0000000E+00 -0.1000000E+01  0.0000000E+00
  0.7982664E+00 -0.4645921E+01  0.5458085E+01  -0.0000000E+00 -0.1000000E+01  0.0000000E+00
 -0.2674787E+01 -0.4645921E+01  0.4824255E+01  -0.0000000E+00 -0.1000000E+01  0.0000000E+00
 -0.2674787E+01 -0.4645921E+01 -0.4824255E+01  -0.0000000E+00 -0.1000000E+01  0.0000000E+00
 -0.7982664E+00 -0.4645921E+01 -0.5458085E+01  -0.0000000E+00 -0.1000000E+01  0.0000000E+00
  0.2674787E+01 -0.4645921E+01 -0.4824255E+01  -0.0000000E+00 -0.1000000E+01  0.0000000E+00
           4
  0.2674787E+01  0.4645921E+01 -0.4824255E+01   0.1795341E+00 -0.1083010E-15 -0.9837518E+00
  0.2674787E+01 -0.4645921E+01 -0.4824255E+01   0.1795341E+00 -0.1083010E-15 -0.9837518E+00
 -0.7982664E+00 -0.4645921E+01 -0.5458085E+01   0.1795341E+00 -0.1083010E-15 -0.9837518E+00
 -0.7982664E+00  0.4645921E+01 -0.5458085E+01   0.1795341E+00 -0.1083010E-15 -0.9837518E+00
           4
  0.7982664E+00  0.4645921E+01  0.5458085E+01  -0.1795341E+00  0.6882297E-16  0.9837518E+00
 -0.2674787E+01  0.4645921E+01  0.4824255E+01  -0.1795341E+00  0.6882297E-16  0.9837518E+00
 -0.2674787E+01 -0.4645921E+01  0.4824255E+01  -0.1795341E+00  0.6882297E-16  0.9837518E+00
  0.7982664E+00 -0.4645921E+01  0.5458085E+01  -0.1795341E+00  0.6882297E-16  0.9837518E+00
           6
  0.2674787E+01  0.4645921E+01 -0.4824255E+01   0.0000000E+00  0.1000000E+01  0.5238876E-15
 -0.7982664E+00  0.4645921E+01 -0.5458085E+01   0.0000000E+00  0.1000000E+01  0.5238876E-15
 -0.2674787E+01  0.4645921E+01 -0.4824255E+01   0.0000000E+00  0.1000000E+01  0.5238876E-15
 -0.2674787E+01  0.4645921E+01  0.4824255E+01   0.0000000E+00  0.1000000E+01  0.5238876E-15
  0.7982664E+00  0.4645921E+01  0.5458085E+01   0.0000000E+00  0.1000000E+01  0.5238876E-15
  0.2674787E+01  0.4645921E+01  0.4824255E+01   0.0000000E+00  0.1000000E+01  0.5238876E-15
           4
  0.2674787E+01  0.4645921E+01  0.4824255E+01   0.1000000E+01 -0.4779345E-16 -0.4399551E-32
  0.2674787E+01 -0.4645921E+01  0.4824255E+01   0.1000000E+01 -0.4779345E-16 -0.4399551E-32
  0.2674787E+01 -0.4645921E+01 -0.4824255E+01   0.1000000E+01 -0.4779345E-16 -0.4399551E-32
  0.2674787E+01  0.4645921E+01 -0.4824255E+01   0.1000000E+01 -0.4779345E-16 -0.4399551E-32
           4
  0.2674787E+01 -0.4645921E+01  0.4824255E+01   0.3200072E+00  0.9651955E-16  0.9474151E+00
  0.2674787E+01  0.4645921E+01  0.4824255E+01   0.3200072E+00  0.9651955E-16  0.9474151E+00
  0.7982664E+00  0.4645921E+01  0.5458085E+01   0.3200072E+00  0.9651955E-16  0.9474151E+00
  0.7982664E+00 -0.4645921E+01  0.5458085E+01   0.3200072E+00  0.9651955E-16  0.9474151E+00
 WIGNER-SEITZ-CONVCELL_END
 BRILLOUIN-ZONE-PRIMCELL
           4
  0.9922683E-01  0.5381064E-01 -0.1451231E-01   0.9474151E+00  0.8393276E-16 -0.3200072E+00
  0.9922683E-01 -0.5381064E-01 -0.1451231E-01   0.9474151E+00  0.8393276E-16 -0.3200072E+00
  0.8770393E-01 -0.5381064E-01 -0.4862706E-01   0.9474151E+00  0.8393276E-16 -0.3200072E+00
  0.8770393E-01  0.5381064E-01 -0.4862706E-01   0.9474151E+00  0.8393276E-16 -0.3200072E+00
           4
 -0.8770393E-01  0.5381064E-01 -0.4862706E-01  -0.4594656E-16  0.0000000E+00 -0.1000000E+01
  0.8770393E-01  0.5381064E-01 -0.4862706E-01  -0.4594656E-16  0.0000000E+00 -0.1000000E+01
  0.8770393E-01 -0.5381064E-01 -0.4862706E-01  -0.4594656E-16  0.0000000E+00 -0.1000000E+01
 -0.8770393E-01 -0.5381064E-01 -0.4862706E-01  -0.4594656E-16  0.0000000E+00 -0.1000000E+01
           6
  0.8770393E-01 -0.5381064E-01  0.4862706E-01   0.0000000E+00 -0.1000000E+01  0.0000000E+00
 -0.8770393E-01 -0.5381064E-01  0.4862706E-01   0.0000000E+00 -0.1000000E+01  0.0000000E+00
 -0.9922683E-01 -0.5381064E-01  0.1451231E-01   0.0000000E+00 -0.1000000E+01  0.0000000E+00
 -0.8770393E-01 -0.5381064E-01 -0.4862706E-01   0.0000000E+00 -0.1000000E+01  0.0000000E+00
  0.8770393E-01 -0.5381064E-01 -0.4862706E-01   0.0000000E+00 -0.1000000E+01  0.0000000E+00
  0.9922683E-01 -0.5381064E-01 -0.1451231E-01   0.0000000E+00 -0.1000000E+01  0.0000000E+00
           4
  0.8770393E-01  0.5381064E-01  0.4862706E-01   0.9837518E+00  0.3217742E-15  0.1795341E+00
  0.8770393E-01 -0.5381064E-01  0.4862706E-01   0.9837518E+00  0.3217742E-15  0.1795341E+00
  0.9922683E-01 -0.5381064E-01 -0.1451231E-01   0.9837518E+00  0.3217742E-15  0.1795341E+00
  0.9922683E-01  0.5381064E-01 -0.1451231E-01   0.9837518E+00  0.3217742E-15  0.1795341E+00
           4
 -0.9922683E-01  0.5381064E-01  0.1451231E-01  -0.9837518E+00  0.1390312E-15 -0.1795341E+00
 -0.8770393E-01  0.5381064E-01 -0.4862706E-01  -0.9837518E+00  0.1390312E-15 -0.1795341E+00
 -0.8770393E-01 -0.5381064E-01 -0.4862706E-01  -0.9837518E+00  0.1390312E-15 -0.1795341E+00
 -0.9922683E-01 -0.5381064E-01  0.1451231E-01  -0.9837518E+00  0.1390312E-15 -0.1795341E+00
           6
  0.9922683E-01  0.5381064E-01 -0.1451231E-01  -0.0000000E+00  0.1000000E+01  0.2898939E-15
  0.8770393E-01  0.5381064E-01 -0.4862706E-01  -0.0000000E+00  0.1000000E+01  0.2898939E-15
 -0.8770393E-01  0.5381064E-01 -0.4862706E-01  -0.0000000E+00  0.1000000E+01  0.2898939E-15
 -0.9922683E-01  0.5381064E-01  0.1451231E-01  -0.0000000E+00  0.1000000E+01  0.2898939E-15
 -0.8770393E-01  0.5381064E-01  0.4862706E-01  -0.0000000E+00  0.1000000E+01  0.2898939E-15
  0.8770393E-01  0.5381064E-01  0.4862706E-01  -0.0000000E+00  0.1000000E+01  0.2898939E-15
           4
 -0.8770393E-01 -0.5381064E-01  0.4862706E-01  -0.0000000E+00  0.2039724E-16  0.1000000E+01
  0.8770393E-01 -0.5381064E-01  0.4862706E-01  -0.0000000E+00  0.2039724E-16  0.1000000E+01
  0.8770393E-01  0.5381064E-01  0.4862706E-01  -0.0000000E+00  0.2039724E-16  0.1000000E+01
 -0.8770393E-01  0.5381064E-01  0.4862706E-01  -0.0000000E+00  0.2039724E-16  0.1000000E+01
           4
 -0.9922683E-01  0.5381064E-01  0.1451231E-01  -0.9474151E+00 -0.1678655E-15  0.3200072E+00
 -0.9922683E-01 -0.5381064E-01  0.1451231E-01  -0.9474151E+00 -0.1678655E-15  0.3200072E+00
 -0.8770393E-01 -0.5381064E-01  0.4862706E-01  -0.9474151E+00 -0.1678655E-15  0.3200072E+00
 -0.8770393E-01  0.5381064E-01  0.4862706E-01  -0.9474151E+00 -0.1678655E-15  0.3200072E+00
 BRILLOUIN-ZONE-PRIMCELL_END
 BRILLOUIN-ZONE-CONVCELL
           4
  0.9922683E-01  0.5381064E-01 -0.1451231E-01   0.9474151E+00  0.8393276E-16 -0.3200072E+00
  0.9922683E-01 -0.5381064E-01 -0.1451231E-01   0.9474151E+00  0.8393276E-16 -0.3200072E+00
  0.8770393E-01 -0.5381064E-01 -0.4862706E-01   0.9474151E+00  0.8393276E-16 -0.3200072E+00
  0.8770393E-01  0.5381064E-01 -0.4862706E-01   0.9474151E+00  0.8393276E-16 -0.3200072E+00
           4
 -0.8770393E-01  0.5381064E-01 -0.4862706E-01  -0.4594656E-16  0.0000000E+00 -0.1000000E+01
  0.8770393E-01  0.5381064E-01 -0.4862706E-01  -0.4594656E-16  0.0000000E+00 -0.1000000E+01
  0.8770393E-01 -0.5381064E-01 -0.4862706E-01  -0.4594656E-16  0.0000000E+00 -0.1000000E+01
 -0.8770393E-01 -0.5381064E-01 -0.4862706E-01  -0.4594656E-16  0.0000000E+00 -0.1000000E+01
           6
  0.8770393E-01 -0.5381064E-01  0.4862706E-01   0.0000000E+00 -0.1000000E+01  0.0000000E+00
 -0.8770393E-01 -0.5381064E-01  0.4862706E-01   0.0000000E+00 -0.1000000E+01  0.0000000E+00
 -0.9922683E-01 -0.5381064E-01  0.1451231E-01   0.0000000E+00 -0.1000000E+01  0.0000000E+00
 -0.8770393E-01 -0.5381064E-01 -0.4862706E-01   0.0000000E+00 -0.1000000E+01  0.0000000E+00
  0.8770393E-01 -0.5381064E-01 -0.4862706E-01   0.0000000E+00 -0.1000000E+01  0.0000000E+00
  0.9922683E-01 -0.5381064E-01 -0.1451231E-01   0.0000000E+00 -0.1000000E+01  0.0000000E+00
           4
  0.8770393E-01  0.5381064E-01  0.4862706E-01   0.9837518E+00  0.3217742E-15  0.1795341E+00
  0.8770393E-01 -0.5381064E-01  0.4862706E-01   0.9837518E+00  0.3217742E-15  0.1795341E+00
  0.9922683E-01 -0.5381064E-01 -0.1451231E-01   0.9837518E+00  0.3217742E-15  0.1795341E+00
  0.9922683E-01  0.5381064E-01 -0.1451231E-01   0.9837518E+00  0.3217742E-15  0.1795341E+00
           4
 -0.9922683E-01  0.5381064E-01  0.1451231E-01  -0.9837518E+00  0.1390312E-15 -0.1795341E+00
 -0.8770393E-01  0.5381064E-01 -0.4862706E-01  -0.9837518E+00  0.1390312E-15 -0.1795341E+00
 -0.8770393E-01 -0.5381064E-01 -0.4862706E-01  -0.9837518E+00  0.1390312E-15 -0.1795341E+00
 -0.9922683E-01 -0.5381064E-01  0.1451231E-01  -0.9837518E+00  0.1390312E-15 -0.1795341E+00
           6
  0.9922683E-01  0.5381064E-01 -0.1451231E-01  -0.0000000E+00  0.1000000E+01  0.2898939E-15
  0.8770393E-01  0.5381064E-01 -0.4862706E-01  -0.0000000E+00  0.1000000E+01  0.2898939E-15
 -0.8770393E-01  0.5381064E-01 -0.4862706E-01  -0.0000000E+00  0.1000000E+01  0.2898939E-15
 -0.9922683E-01  0.5381064E-01  0.1451231E-01  -0.0000000E+00  0.1000000E+01  0.2898939E-15
 -0.8770393E-01  0.5381064E-01  0.4862706E-01  -0.0000000E+00  0.1000000E+01  0.2898939E-15
  0.8770393E-01  0.5381064E-01  0.4862706E-01  -0.0000000E+00  0.1000000E+01  0.2898939E-15
           4
 -0.8770393E-01 -0.5381064E-01  0.4862706E-01  -0.0000000E+00  0.2039724E-16  0.1000000E+01
  0.8770393E-01 -0.5381064E-01  0.4862706E-01  -0.0000000E+00  0.2039724E-16  0.1000000E+01
  0.8770393E-01  0.5381064E-01  0.4862706E-01  -0.0000000E+00  0.2039724E-16  0.1000000E+01
 -0.8770393E-01  0.5381064E-01  0.4862706E-01  -0.0000000E+00  0.2039724E-16  0.1000000E+01
           4
 -0.9922683E-01  0.5381064E-01  0.1451231E-01  -0.9474151E+00 -0.1678655E-15  0.3200072E+00
 -0.9922683E-01 -0.5381064E-01  0.1451231E-01  -0.9474151E+00 -0.1678655E-15  0.3200072E+00
 -0.8770393E-01 -0.5381064E-01  0.4862706E-01  -0.9474151E+00 -0.1678655E-15  0.3200072E+00
 -0.8770393E-01  0.5381064E-01  0.4862706E-01  -0.9474151E+00 -0.1678655E-15  0.3200072E+00
 BRILLOUIN-ZONE-CONVCELL_END
 ATOMS
   19    0.0000000000    4.5296095710    0.0000000000    0.0000000000   -0.0009120900    0.0000000000
   19    2.6747874020    0.0983801130    0.0000000000    0.0000000000    0.0008371300    0.0000000000
   12   -0.9382609340    3.1136942690    5.1411697490    0.0000000000   -0.0004252100    0.0000000000
   12   -0.9382609340    6.1593354230    5.1411697490    0.0000000000    0.0005129600    0.0000000000
   12    1.7365264680    4.5754507690    5.1411697490    0.0000000000    0.0002596100    0.0000000000
   12    1.7365264680    7.7278226420    5.1411697490    0.0000000000    0.0002714000    0.0000000000
   12    1.7365264680    1.6310836650    5.1411697490    0.0000000000   -0.0005519400    0.0000000000
   14    0.0333475830    1.5430917480    2.3187606970   -0.0001670000   -0.0001189700    0.0000056400
   14    3.4397051110    1.5430917480    7.9635792530    0.0001670000   -0.0001189700   -0.0000056400
   14    3.5460442180    7.7435252980    7.8926298220    0.0001933100    0.0001261400    0.0003401200
   14   -0.0729914180    7.7435252980    2.3897099840   -0.0001933100    0.0001261400   -0.0003401200
   14    2.5955060130    6.1971440040    2.3713159930   -0.0001484100   -0.0000726900   -0.0003010600
   14    0.8775470840    6.1971440040    7.9110235060    0.0001484100   -0.0000726900    0.0003010600
   13    0.7634614010    3.0797092090    7.9354279740    0.0002025200    0.0001476100    0.0000840900
   13    2.7095913800    3.0797092090    2.3469115240   -0.0002025200    0.0001476100   -0.0000840900
    8   -0.0164972300    1.5812922750    3.9573934060    0.0003973700    0.0000669400   -0.0002647000
    8    3.4895500320    1.5812922750    6.3249463900   -0.0003973700    0.0000669400    0.0002647000
    8    3.5108358560    7.6842835740    6.2680583950    0.0000462300   -0.0000775100    0.0006105700
    8   -0.0377828390    7.6842835740    4.0142811030   -0.0000462300   -0.0000775100   -0.0006105700
    8    2.6201265840    6.2195861170    4.0031254380   -0.0001477600    0.0002600300   -0.0005000400
    8    0.8529264570    6.2195861170    6.2792143680    0.0001477600    0.0002600300    0.0005000400
    8    0.7957140220    3.0936795900    6.1974390700    0.0001797500    0.0001162100    0.0001608000
    8    2.6773388100    3.0936795900    4.0849001200   -0.0001797500    0.0001162100   -0.0001608000
    8    1.4965868370    1.9430073390    1.7271508410    0.0001692000   -0.0000590600    0.0004184400
    8    1.9764663380    1.9430073390    8.5551882050   -0.0001692000   -0.0000590600   -0.0004184400
    8   -0.2697555690    9.2639262610    1.7972720620   -0.0003101400    0.0001225800    0.0000899700
    8    2.1227498990    7.1504543110    8.4992479640   -0.0001074900    0.0003018200   -0.0007651700
    8    1.3503028280    7.1504543110    1.7830918330    0.0001074900    0.0003018200    0.0007651700
    8    4.0150161390    6.8597847990    1.7832634240    0.0000053600   -0.0002211500    0.0005004100
    8   -0.5419631780    6.8597847990    8.4990763830   -0.0000053600   -0.0002211500   -0.0005004100
    8    2.4131507190    4.7241230440    1.7239495470   -0.0002519500    0.0000109300   -0.0003942000
    8    1.0599019250    4.7241230440    8.5583897970    0.0002519500    0.0000109300    0.0003942000
    8   -0.7774016410    2.5179963360    8.6076338130    0.0002422700   -0.0003802600   -0.0003728200
    8    4.2504546020    2.5179963360    1.6747059940   -0.0002422700   -0.0003802600    0.0003728200
    8   -0.0352732430    4.6800124640    4.0859425350   -0.0003447700   -0.0001469400    0.0001387100
    8    3.5083263350    4.6800124640    6.1963969630    0.0003447700   -0.0001469400   -0.0001387100
    8    2.5913619560    9.2903564020    4.0949074750   -0.0009050700    0.0001170900    0.0001525000
    8    0.8816911410    9.2903564020    6.1874320230    0.0009050700    0.0001170900   -0.0001525000
    1   -0.0233182270    4.6075294210    3.1223525340   -0.0001221300    0.0002271800    0.0000238900
    1    3.4963714850    4.6075294210    7.1599869650    0.0001221300    0.0002271800   -0.0000238900
    1    2.5732321710    0.0973733220    3.1277263000    0.0003253000   -0.0002597100    0.0003540500
    1    0.8998208220    0.0973733220    7.1546128900   -0.0003253000   -0.0002597100   -0.0003540500
   22   -0.9382609340    0.0313527020    5.1411697490    0.0000000000   -0.0003123200    0.0000000000
   19   -1.8765207530    4.5296095710   10.2823404840    0.0000000000   -0.0009120900    0.0000000000
   19    0.7982666490    0.0983801130   10.2823404840    0.0000000000    0.0008371300    0.0000000000
   19    5.3495742220    4.5296095710    0.0000000000    0.0000000000   -0.0009120900    0.0000000000
   12    4.4113132880    3.1136942690    5.1411697490    0.0000000000   -0.0004252100    0.0000000000
   12    4.4113132880    6.1593354230    5.1411697490    0.0000000000    0.0005129600    0.0000000000
    8    3.7428086550    9.2639262610    8.4850669730    0.0003101400    0.0001225800   -0.0000899700
   22    4.4113132880    0.0313527020    5.1411697490    0.0000000000   -0.0003123200    0.0000000000
   19    3.4730534690    4.5296095710   10.2823404840    0.0000000000   -0.0009120900    0.0000000000
 FRAMES
1      0.0000000000    0.0000000000    0.0000000000      5.3495742220    0.0000000000    0.0000000000
1      0.0000000000    0.0000000000    0.0000000000      0.0000000000    9.2918426630    0.0000000000
1      0.0000000000    0.0000000000    0.0000000000     -1.8765207530    0.0000000000   10.2823404840
1     -1.8765207530    0.0000000000   10.2823404840      3.4730534690    0.0000000000   10.2823404840
1     -1.8765207530    0.0000000000   10.2823404840     -1.8765207530    9.2918426630   10.2823404840
1      0.0000000000    9.2918426630    0.0000000000      5.3495742220    9.2918426630    0.0000000000
1      0.0000000000    9.2918426630    0.0000000000     -1.8765207530    9.2918426630   10.2823404840
1     -1.8765207530    9.2918426630   10.2823404840      3.4730534690    9.2918426630   10.2823404840
1      5.3495742220    0.0000000000    0.0000000000      5.3495742220    9.2918426630    0.0000000000
1      5.3495742220    0.0000000000    0.0000000000      3.4730534690    0.0000000000   10.2823404840
1      3.4730534690    0.0000000000   10.2823404840      3.4730534690    9.2918426630   10.2823404840
1      5.3495742220    9.2918426630    0.0000000000      3.4730534690    9.2918426630   10.2823404840
