 INFO
nunit      1    1    1
unit   cell
celltype   primcell
shape   parapipedal
 END_INFO
 DIM-GROUP
           3           1
 PRIMVEC
    5.3332162400    0.0000000000    0.0000000000
    0.0000000000    9.2648496080    0.0000000000
   -1.8670885510    0.0000000000   10.2826531240
 CONVVEC
    5.3332162400    0.0000000000    0.0000000000
    0.0000000000    9.2648496080    0.0000000000
   -1.8670885510    0.0000000000   10.2826531240
 PRIMCOORD
          44           1
 19      0.0000000000     4.5315083930     0.0000000000     0.0000000000    -0.0008211200     0.0000000000
 19      2.6666086680     0.0754169030     0.0000000000     0.0000000000     0.0007182000     0.0000000000
 12     -0.9335440960     3.0870650800     5.1413261700     0.0000000000    -0.0002073300     0.0000000000
 12     -0.9335440960     6.1589468670     5.1413261700     0.0000000000     0.0006631000     0.0000000000
 12      1.7330645720     4.5626208990     5.1413261700     0.0000000000     0.0000475900     0.0000000000
 12      1.7330645720     7.7063989300     5.1413261700     0.0000000000     0.0001116300     0.0000000000
 12      1.7330645720     1.6227222560     5.1413261700     0.0000000000    -0.0002991400     0.0000000000
 14      0.0397630940     1.5355373020     2.3218204160     0.0002009500    -0.0000402700    -0.0000122600
 14      3.4263659580     1.5355373020     7.9608322220    -0.0002009500    -0.0000402700     0.0000122600
 14      3.5396110190     7.7217090300     7.8886764690     0.0000282200    -0.0001622300     0.0001674900
 14     -0.0734819920     7.7217090300     2.3939758710    -0.0000282200    -0.0001622300    -0.0001674900
 14      2.5843973740     6.1767821830     2.3686604080    -0.0000319600     0.0001262800     0.0002947500
 14      0.8817317700     6.1767821830     7.9139919330     0.0000319600     0.0001262800    -0.0002947500
 13      0.7619141480     3.0681231560     7.9386057510     0.0000575800     0.0002007100    -0.0002605200
 13      2.7042152120     3.0681231560     2.3440462810    -0.0000575800     0.0002007100     0.0002605200
  8     -0.0082766920     1.5699459680     3.9571716330     0.0006188700     0.0001386400     0.0001927500
  8      3.4744056200     1.5699459680     6.3254810160    -0.0006188700     0.0001386400    -0.0001927500
  8      3.4989000680     7.6685528190     6.2696876660    -0.0002415100    -0.0003668100    -0.0000353000
  8     -0.0327709500     7.6685528190     4.0129643760     0.0002415100    -0.0003668100     0.0000353000
  8      2.6097266010     6.1985434540     3.9978687290     0.0000011900     0.0001154800     0.0002377900
  8      0.8564023270     6.1985434540     6.2847839190    -0.0000011900     0.0001154800    -0.0002377900
  8      0.7961811200     3.0839871650     6.2029328920     0.0004442500     0.0001382300    -0.0003769000
  8      2.6699481240     3.0839871650     4.0797197460    -0.0004442500     0.0001382300     0.0003769000
  8      1.5090184290     1.9112529550     1.7256655640     0.0000018700    -0.0003707200     0.0002683400
  8      1.9571107990     1.9112529550     8.5569863140    -0.0000018700    -0.0003707200    -0.0002683400
  8      5.0347262970     9.2375622310     1.7988965830    -0.0003139200     0.0000572000    -0.0002970100
  8     -1.5685972030     9.2375622310     8.4837559110     0.0003139200     0.0000572000     0.0002970100
  8      2.1137739010     7.1436690750     8.5061022190    -0.0002034600     0.0005813500    -0.0002699000
  8      1.3523553770     7.1436690750     1.7765502650     0.0002034600     0.0005813500     0.0002699000
  8      4.0101557510     6.8233597240     1.7815674520    -0.0000063600    -0.0003680900    -0.0000968600
  8     -0.5440265030     6.8233597240     8.5010851970     0.0000063600    -0.0003680900     0.0000968600
  8      2.3862893470     4.7068973040     1.7182270140    -0.0003253000     0.0000131900    -0.0007212200
  8      1.0798394770     4.7068973040     8.5644253260     0.0003253000     0.0000131900     0.0007212200
  8     -0.7891253380     2.5289378470     8.6048965690     0.0001117000     0.0000661500     0.0000783300
  8      4.2552546080     2.5289378470     1.6777559260    -0.0001117000     0.0000661500    -0.0000783300
  8     -0.0367860170     4.6671261550     4.0878788760    -0.0005098000    -0.0002471700     0.0003268900
  8      3.5029151610     4.6671261550     6.1947734640     0.0005098000    -0.0002471700    -0.0003268900
  8      2.6064343790     9.2620916320     4.1218989030    -0.0008038900     0.0001073700     0.0001853300
  8      0.8596948210     9.2620916320     6.1607531280     0.0008038900     0.0001073700    -0.0001853300
  1     -0.0254572940     4.5878349560     3.1257118670     0.0000200800     0.0001697800    -0.0001593000
  1      3.4915867150     4.5878349560     7.1569404730    -0.0000200800     0.0001697800     0.0001593000
  1      2.6686617570     0.1245469250     3.1640356670     0.0000790900    -0.0003232900     0.0003133900
  1      0.7974672830     0.1245469250     7.1186163650    -0.0000790900    -0.0003232900    -0.0003133900
 26     -0.9335440960     0.0491003220     5.1413261700     0.0000000000     0.0001154600     0.0000000000
 CONVCOORD
          44           1
 19      0.0000000000     4.5315083930     0.0000000000
 19      2.6666086680     0.0754169030     0.0000000000
 12     -0.9335440960     3.0870650800     5.1413261700
 12     -0.9335440960     6.1589468670     5.1413261700
 12      1.7330645720     4.5626208990     5.1413261700
 12      1.7330645720     7.7063989300     5.1413261700
 12      1.7330645720     1.6227222560     5.1413261700
 14      0.0397630940     1.5355373020     2.3218204160
 14      3.4263659580     1.5355373020     7.9608322220
 14      3.5396110190     7.7217090300     7.8886764690
 14     -0.0734819920     7.7217090300     2.3939758710
 14      2.5843973740     6.1767821830     2.3686604080
 14      0.8817317700     6.1767821830     7.9139919330
 13      0.7619141480     3.0681231560     7.9386057510
 13      2.7042152120     3.0681231560     2.3440462810
  8     -0.0082766920     1.5699459680     3.9571716330
  8      3.4744056200     1.5699459680     6.3254810160
  8      3.4989000680     7.6685528190     6.2696876660
  8     -0.0327709500     7.6685528190     4.0129643760
  8      2.6097266010     6.1985434540     3.9978687290
  8      0.8564023270     6.1985434540     6.2847839190
  8      0.7961811200     3.0839871650     6.2029328920
  8      2.6699481240     3.0839871650     4.0797197460
  8      1.5090184290     1.9112529550     1.7256655640
  8      1.9571107990     1.9112529550     8.5569863140
  8     -0.2984899430     9.2375622310     1.7988965830
  8     -1.5685972030     9.2375622310     8.4837559110
  8      2.1137739010     7.1436690750     8.5061022190
  8      1.3523553770     7.1436690750     1.7765502650
  8      4.0101557510     6.8233597240     1.7815674520
  8     -0.5440265030     6.8233597240     8.5010851970
  8      2.3862893470     4.7068973040     1.7182270140
  8      1.0798394770     4.7068973040     8.5644253260
  8     -0.7891253380     2.5289378470     8.6048965690
  8      4.2552546080     2.5289378470     1.6777559260
  8     -0.0367860170     4.6671261550     4.0878788760
  8      3.5029151610     4.6671261550     6.1947734640
  8      2.6064343790     9.2620916320     4.1218989030
  8      0.8596948210     9.2620916320     6.1607531280
  1     -0.0254572940     4.5878349560     3.1257118670
  1      3.4915867150     4.5878349560     7.1569404730
  1      2.6686617570     0.1245469250     3.1640356670
  1      0.7974672830     0.1245469250     7.1186163650
 26     -0.9335440960     0.0491003220     5.1413261700
 RECIP-PRIMVEC
    0.1875041167   -0.0000000000    0.0340463483

    0.0000000000    0.1079348335   -0.0000000000

    0.0000000000    0.0000000000    0.0972511654

 RECIP-CONVVEC
    0.1875041167   -0.0000000000    0.0340463483

    0.0000000000    0.1079348335   -0.0000000000

    0.0000000000    0.0000000000    0.0972511654

 WIGNER-SEITZ-PRIMCELL
           4
 -0.2666608E+01 -0.4632425E+01 -0.4826643E+01  -0.3194255E+00  0.0000000E+00 -0.9476114E+00
 -0.2666608E+01  0.4632425E+01 -0.4826643E+01  -0.3194255E+00  0.0000000E+00 -0.9476114E+00
 -0.7995196E+00  0.4632425E+01 -0.5456010E+01  -0.3194255E+00  0.0000000E+00 -0.9476114E+00
 -0.7995196E+00 -0.4632425E+01 -0.5456010E+01  -0.3194255E+00  0.0000000E+00 -0.9476114E+00
           4
 -0.2666608E+01  0.4632425E+01 -0.4826643E+01  -0.1000000E+01 -0.0000000E+00 -0.0000000E+00
 -0.2666608E+01 -0.4632425E+01 -0.4826643E+01  -0.1000000E+01 -0.0000000E+00 -0.0000000E+00
 -0.2666608E+01 -0.4632425E+01  0.4826643E+01  -0.1000000E+01 -0.0000000E+00 -0.0000000E+00
 -0.2666608E+01  0.4632425E+01  0.4826643E+01  -0.1000000E+01 -0.0000000E+00 -0.0000000E+00
           6
  0.2666608E+01 -0.4632425E+01  0.4826643E+01   0.0000000E+00 -0.1000000E+01  0.2116882E-14
  0.7995196E+00 -0.4632425E+01  0.5456010E+01   0.0000000E+00 -0.1000000E+01  0.2116882E-14
 -0.2666608E+01 -0.4632425E+01  0.4826643E+01   0.0000000E+00 -0.1000000E+01  0.2116882E-14
 -0.2666608E+01 -0.4632425E+01 -0.4826643E+01   0.0000000E+00 -0.1000000E+01  0.2116882E-14
 -0.7995196E+00 -0.4632425E+01 -0.5456010E+01   0.0000000E+00 -0.1000000E+01  0.2116882E-14
  0.2666608E+01 -0.4632425E+01 -0.4826643E+01   0.0000000E+00 -0.1000000E+01  0.2116882E-14
           4
  0.2666608E+01  0.4632425E+01 -0.4826643E+01   0.1786553E+00 -0.1088512E-15 -0.9839117E+00
  0.2666608E+01 -0.4632425E+01 -0.4826643E+01   0.1786553E+00 -0.1088512E-15 -0.9839117E+00
 -0.7995196E+00 -0.4632425E+01 -0.5456010E+01   0.1786553E+00 -0.1088512E-15 -0.9839117E+00
 -0.7995196E+00  0.4632425E+01 -0.5456010E+01   0.1786553E+00 -0.1088512E-15 -0.9839117E+00
           4
 -0.2666608E+01  0.4632425E+01  0.4826643E+01  -0.1786553E+00 -0.1088512E-15  0.9839117E+00
 -0.2666608E+01 -0.4632425E+01  0.4826643E+01  -0.1786553E+00 -0.1088512E-15  0.9839117E+00
  0.7995196E+00 -0.4632425E+01  0.5456010E+01  -0.1786553E+00 -0.1088512E-15  0.9839117E+00
  0.7995196E+00  0.4632425E+01  0.5456010E+01  -0.1786553E+00 -0.1088512E-15  0.9839117E+00
           6
  0.2666608E+01  0.4632425E+01 -0.4826643E+01  -0.3330742E-15  0.1000000E+01 -0.0000000E+00
 -0.7995196E+00  0.4632425E+01 -0.5456010E+01  -0.3330742E-15  0.1000000E+01 -0.0000000E+00
 -0.2666608E+01  0.4632425E+01 -0.4826643E+01  -0.3330742E-15  0.1000000E+01 -0.0000000E+00
 -0.2666608E+01  0.4632425E+01  0.4826643E+01  -0.3330742E-15  0.1000000E+01 -0.0000000E+00
  0.7995196E+00  0.4632425E+01  0.5456010E+01  -0.3330742E-15  0.1000000E+01 -0.0000000E+00
  0.2666608E+01  0.4632425E+01  0.4826643E+01  -0.3330742E-15  0.1000000E+01 -0.0000000E+00
           4
  0.2666608E+01  0.4632425E+01  0.4826643E+01   0.1000000E+01  0.0000000E+00  0.0000000E+00
  0.2666608E+01 -0.4632425E+01  0.4826643E+01   0.1000000E+01  0.0000000E+00  0.0000000E+00
  0.2666608E+01 -0.4632425E+01 -0.4826643E+01   0.1000000E+01  0.0000000E+00  0.0000000E+00
  0.2666608E+01  0.4632425E+01 -0.4826643E+01   0.1000000E+01  0.0000000E+00  0.0000000E+00
           4
  0.7995196E+00 -0.4632425E+01  0.5456010E+01   0.3194255E+00  0.2740233E-15  0.9476114E+00
  0.2666608E+01 -0.4632425E+01  0.4826643E+01   0.3194255E+00  0.2740233E-15  0.9476114E+00
  0.2666608E+01  0.4632425E+01  0.4826643E+01   0.3194255E+00  0.2740233E-15  0.9476114E+00
  0.7995196E+00  0.4632425E+01  0.5456010E+01   0.3194255E+00  0.2740233E-15  0.9476114E+00
 WIGNER-SEITZ-PRIMCELL_END
 WIGNER-SEITZ-CONVCELL
           4
 -0.2666608E+01 -0.4632425E+01 -0.4826643E+01  -0.3194255E+00  0.0000000E+00 -0.9476114E+00
 -0.2666608E+01  0.4632425E+01 -0.4826643E+01  -0.3194255E+00  0.0000000E+00 -0.9476114E+00
 -0.7995196E+00  0.4632425E+01 -0.5456010E+01  -0.3194255E+00  0.0000000E+00 -0.9476114E+00
 -0.7995196E+00 -0.4632425E+01 -0.5456010E+01  -0.3194255E+00  0.0000000E+00 -0.9476114E+00
           4
 -0.2666608E+01  0.4632425E+01 -0.4826643E+01  -0.1000000E+01 -0.0000000E+00 -0.0000000E+00
 -0.2666608E+01 -0.4632425E+01 -0.4826643E+01  -0.1000000E+01 -0.0000000E+00 -0.0000000E+00
 -0.2666608E+01 -0.4632425E+01  0.4826643E+01  -0.1000000E+01 -0.0000000E+00 -0.0000000E+00
 -0.2666608E+01  0.4632425E+01  0.4826643E+01  -0.1000000E+01 -0.0000000E+00 -0.0000000E+00
           6
  0.2666608E+01 -0.4632425E+01  0.4826643E+01   0.0000000E+00 -0.1000000E+01  0.2116882E-14
  0.7995196E+00 -0.4632425E+01  0.5456010E+01   0.0000000E+00 -0.1000000E+01  0.2116882E-14
 -0.2666608E+01 -0.4632425E+01  0.4826643E+01   0.0000000E+00 -0.1000000E+01  0.2116882E-14
 -0.2666608E+01 -0.4632425E+01 -0.4826643E+01   0.0000000E+00 -0.1000000E+01  0.2116882E-14
 -0.7995196E+00 -0.4632425E+01 -0.5456010E+01   0.0000000E+00 -0.1000000E+01  0.2116882E-14
  0.2666608E+01 -0.4632425E+01 -0.4826643E+01   0.0000000E+00 -0.1000000E+01  0.2116882E-14
           4
  0.2666608E+01  0.4632425E+01 -0.4826643E+01   0.1786553E+00 -0.1088512E-15 -0.9839117E+00
  0.2666608E+01 -0.4632425E+01 -0.4826643E+01   0.1786553E+00 -0.1088512E-15 -0.9839117E+00
 -0.7995196E+00 -0.4632425E+01 -0.5456010E+01   0.1786553E+00 -0.1088512E-15 -0.9839117E+00
 -0.7995196E+00  0.4632425E+01 -0.5456010E+01   0.1786553E+00 -0.1088512E-15 -0.9839117E+00
           4
 -0.2666608E+01  0.4632425E+01  0.4826643E+01  -0.1786553E+00 -0.1088512E-15  0.9839117E+00
 -0.2666608E+01 -0.4632425E+01  0.4826643E+01  -0.1786553E+00 -0.1088512E-15  0.9839117E+00
  0.7995196E+00 -0.4632425E+01  0.5456010E+01  -0.1786553E+00 -0.1088512E-15  0.9839117E+00
  0.7995196E+00  0.4632425E+01  0.5456010E+01  -0.1786553E+00 -0.1088512E-15  0.9839117E+00
           6
  0.2666608E+01  0.4632425E+01 -0.4826643E+01  -0.3330742E-15  0.1000000E+01 -0.0000000E+00
 -0.7995196E+00  0.4632425E+01 -0.5456010E+01  -0.3330742E-15  0.1000000E+01 -0.0000000E+00
 -0.2666608E+01  0.4632425E+01 -0.4826643E+01  -0.3330742E-15  0.1000000E+01 -0.0000000E+00
 -0.2666608E+01  0.4632425E+01  0.4826643E+01  -0.3330742E-15  0.1000000E+01 -0.0000000E+00
  0.7995196E+00  0.4632425E+01  0.5456010E+01  -0.3330742E-15  0.1000000E+01 -0.0000000E+00
  0.2666608E+01  0.4632425E+01  0.4826643E+01  -0.3330742E-15  0.1000000E+01 -0.0000000E+00
           4
  0.2666608E+01  0.4632425E+01  0.4826643E+01   0.1000000E+01  0.0000000E+00  0.0000000E+00
  0.2666608E+01 -0.4632425E+01  0.4826643E+01   0.1000000E+01  0.0000000E+00  0.0000000E+00
  0.2666608E+01 -0.4632425E+01 -0.4826643E+01   0.1000000E+01  0.0000000E+00  0.0000000E+00
  0.2666608E+01  0.4632425E+01 -0.4826643E+01   0.1000000E+01  0.0000000E+00  0.0000000E+00
           4
  0.7995196E+00 -0.4632425E+01  0.5456010E+01   0.3194255E+00  0.2740233E-15  0.9476114E+00
  0.2666608E+01 -0.4632425E+01  0.4826643E+01   0.3194255E+00  0.2740233E-15  0.9476114E+00
  0.2666608E+01  0.4632425E+01  0.4826643E+01   0.3194255E+00  0.2740233E-15  0.9476114E+00
  0.7995196E+00  0.4632425E+01  0.5456010E+01   0.3194255E+00  0.2740233E-15  0.9476114E+00
 WIGNER-SEITZ-CONVCELL_END
 BRILLOUIN-ZONE-PRIMCELL
           4
  0.9949031E-01 -0.5396742E-01 -0.1457923E-01   0.9476114E+00  0.0000000E+00 -0.3194255E+00
  0.8801380E-01 -0.5396742E-01 -0.4862558E-01   0.9476114E+00  0.0000000E+00 -0.3194255E+00
  0.8801380E-01  0.5396742E-01 -0.4862558E-01   0.9476114E+00  0.0000000E+00 -0.3194255E+00
  0.9949031E-01  0.5396742E-01 -0.1457923E-01   0.9476114E+00  0.0000000E+00 -0.3194255E+00
           4
 -0.8801380E-01 -0.5396742E-01 -0.4862558E-01   0.1775876E-16  0.0000000E+00 -0.1000000E+01
 -0.8801380E-01  0.5396742E-01 -0.4862558E-01   0.1775876E-16  0.0000000E+00 -0.1000000E+01
  0.8801380E-01  0.5396742E-01 -0.4862558E-01   0.1775876E-16  0.0000000E+00 -0.1000000E+01
  0.8801380E-01 -0.5396742E-01 -0.4862558E-01   0.1775876E-16  0.0000000E+00 -0.1000000E+01
           6
  0.8801380E-01 -0.5396742E-01  0.4862558E-01   0.0000000E+00 -0.1000000E+01  0.0000000E+00
 -0.8801380E-01 -0.5396742E-01  0.4862558E-01   0.0000000E+00 -0.1000000E+01  0.0000000E+00
 -0.9949031E-01 -0.5396742E-01  0.1457923E-01   0.0000000E+00 -0.1000000E+01  0.0000000E+00
 -0.8801380E-01 -0.5396742E-01 -0.4862558E-01   0.0000000E+00 -0.1000000E+01  0.0000000E+00
  0.8801380E-01 -0.5396742E-01 -0.4862558E-01   0.0000000E+00 -0.1000000E+01  0.0000000E+00
  0.9949031E-01 -0.5396742E-01 -0.1457923E-01   0.0000000E+00 -0.1000000E+01  0.0000000E+00
           4
  0.8801380E-01  0.5396742E-01  0.4862558E-01   0.9839117E+00 -0.2501927E-15  0.1786553E+00
  0.8801380E-01 -0.5396742E-01  0.4862558E-01   0.9839117E+00 -0.2501927E-15  0.1786553E+00
  0.9949031E-01 -0.5396742E-01 -0.1457923E-01   0.9839117E+00 -0.2501927E-15  0.1786553E+00
  0.9949031E-01  0.5396742E-01 -0.1457923E-01   0.9839117E+00 -0.2501927E-15  0.1786553E+00
           4
 -0.9949031E-01  0.5396742E-01  0.1457923E-01  -0.9839117E+00 -0.6254817E-16 -0.1786553E+00
 -0.8801380E-01  0.5396742E-01 -0.4862558E-01  -0.9839117E+00 -0.6254817E-16 -0.1786553E+00
 -0.8801380E-01 -0.5396742E-01 -0.4862558E-01  -0.9839117E+00 -0.6254817E-16 -0.1786553E+00
 -0.9949031E-01 -0.5396742E-01  0.1457923E-01  -0.9839117E+00 -0.6254817E-16 -0.1786553E+00
           6
  0.9949031E-01  0.5396742E-01 -0.1457923E-01  -0.0000000E+00  0.1000000E+01 -0.5789072E-15
  0.8801380E-01  0.5396742E-01 -0.4862558E-01  -0.0000000E+00  0.1000000E+01 -0.5789072E-15
 -0.8801380E-01  0.5396742E-01 -0.4862558E-01  -0.0000000E+00  0.1000000E+01 -0.5789072E-15
 -0.9949031E-01  0.5396742E-01  0.1457923E-01  -0.0000000E+00  0.1000000E+01 -0.5789072E-15
 -0.8801380E-01  0.5396742E-01  0.4862558E-01  -0.0000000E+00  0.1000000E+01 -0.5789072E-15
  0.8801380E-01  0.5396742E-01  0.4862558E-01  -0.0000000E+00  0.1000000E+01 -0.5789072E-15
           4
  0.8801380E-01 -0.5396742E-01  0.4862558E-01  -0.0000000E+00 -0.0000000E+00  0.1000000E+01
  0.8801380E-01  0.5396742E-01  0.4862558E-01  -0.0000000E+00 -0.0000000E+00  0.1000000E+01
 -0.8801380E-01  0.5396742E-01  0.4862558E-01  -0.0000000E+00 -0.0000000E+00  0.1000000E+01
 -0.8801380E-01 -0.5396742E-01  0.4862558E-01  -0.0000000E+00 -0.0000000E+00  0.1000000E+01
           4
 -0.9949031E-01  0.5396742E-01  0.1457923E-01  -0.9476114E+00  0.3354978E-15  0.3194255E+00
 -0.9949031E-01 -0.5396742E-01  0.1457923E-01  -0.9476114E+00  0.3354978E-15  0.3194255E+00
 -0.8801380E-01 -0.5396742E-01  0.4862558E-01  -0.9476114E+00  0.3354978E-15  0.3194255E+00
 -0.8801380E-01  0.5396742E-01  0.4862558E-01  -0.9476114E+00  0.3354978E-15  0.3194255E+00
 BRILLOUIN-ZONE-PRIMCELL_END
 BRILLOUIN-ZONE-CONVCELL
           4
  0.9949031E-01 -0.5396742E-01 -0.1457923E-01   0.9476114E+00  0.0000000E+00 -0.3194255E+00
  0.8801380E-01 -0.5396742E-01 -0.4862558E-01   0.9476114E+00  0.0000000E+00 -0.3194255E+00
  0.8801380E-01  0.5396742E-01 -0.4862558E-01   0.9476114E+00  0.0000000E+00 -0.3194255E+00
  0.9949031E-01  0.5396742E-01 -0.1457923E-01   0.9476114E+00  0.0000000E+00 -0.3194255E+00
           4
 -0.8801380E-01 -0.5396742E-01 -0.4862558E-01   0.1775876E-16  0.0000000E+00 -0.1000000E+01
 -0.8801380E-01  0.5396742E-01 -0.4862558E-01   0.1775876E-16  0.0000000E+00 -0.1000000E+01
  0.8801380E-01  0.5396742E-01 -0.4862558E-01   0.1775876E-16  0.0000000E+00 -0.1000000E+01
  0.8801380E-01 -0.5396742E-01 -0.4862558E-01   0.1775876E-16  0.0000000E+00 -0.1000000E+01
           6
  0.8801380E-01 -0.5396742E-01  0.4862558E-01   0.0000000E+00 -0.1000000E+01  0.0000000E+00
 -0.8801380E-01 -0.5396742E-01  0.4862558E-01   0.0000000E+00 -0.1000000E+01  0.0000000E+00
 -0.9949031E-01 -0.5396742E-01  0.1457923E-01   0.0000000E+00 -0.1000000E+01  0.0000000E+00
 -0.8801380E-01 -0.5396742E-01 -0.4862558E-01   0.0000000E+00 -0.1000000E+01  0.0000000E+00
  0.8801380E-01 -0.5396742E-01 -0.4862558E-01   0.0000000E+00 -0.1000000E+01  0.0000000E+00
  0.9949031E-01 -0.5396742E-01 -0.1457923E-01   0.0000000E+00 -0.1000000E+01  0.0000000E+00
           4
  0.8801380E-01  0.5396742E-01  0.4862558E-01   0.9839117E+00 -0.2501927E-15  0.1786553E+00
  0.8801380E-01 -0.5396742E-01  0.4862558E-01   0.9839117E+00 -0.2501927E-15  0.1786553E+00
  0.9949031E-01 -0.5396742E-01 -0.1457923E-01   0.9839117E+00 -0.2501927E-15  0.1786553E+00
  0.9949031E-01  0.5396742E-01 -0.1457923E-01   0.9839117E+00 -0.2501927E-15  0.1786553E+00
           4
 -0.9949031E-01  0.5396742E-01  0.1457923E-01  -0.9839117E+00 -0.6254817E-16 -0.1786553E+00
 -0.8801380E-01  0.5396742E-01 -0.4862558E-01  -0.9839117E+00 -0.6254817E-16 -0.1786553E+00
 -0.8801380E-01 -0.5396742E-01 -0.4862558E-01  -0.9839117E+00 -0.6254817E-16 -0.1786553E+00
 -0.9949031E-01 -0.5396742E-01  0.1457923E-01  -0.9839117E+00 -0.6254817E-16 -0.1786553E+00
           6
  0.9949031E-01  0.5396742E-01 -0.1457923E-01  -0.0000000E+00  0.1000000E+01 -0.5789072E-15
  0.8801380E-01  0.5396742E-01 -0.4862558E-01  -0.0000000E+00  0.1000000E+01 -0.5789072E-15
 -0.8801380E-01  0.5396742E-01 -0.4862558E-01  -0.0000000E+00  0.1000000E+01 -0.5789072E-15
 -0.9949031E-01  0.5396742E-01  0.1457923E-01  -0.0000000E+00  0.1000000E+01 -0.5789072E-15
 -0.8801380E-01  0.5396742E-01  0.4862558E-01  -0.0000000E+00  0.1000000E+01 -0.5789072E-15
  0.8801380E-01  0.5396742E-01  0.4862558E-01  -0.0000000E+00  0.1000000E+01 -0.5789072E-15
           4
  0.8801380E-01 -0.5396742E-01  0.4862558E-01  -0.0000000E+00 -0.0000000E+00  0.1000000E+01
  0.8801380E-01  0.5396742E-01  0.4862558E-01  -0.0000000E+00 -0.0000000E+00  0.1000000E+01
 -0.8801380E-01  0.5396742E-01  0.4862558E-01  -0.0000000E+00 -0.0000000E+00  0.1000000E+01
 -0.8801380E-01 -0.5396742E-01  0.4862558E-01  -0.0000000E+00 -0.0000000E+00  0.1000000E+01
           4
 -0.9949031E-01  0.5396742E-01  0.1457923E-01  -0.9476114E+00  0.3354978E-15  0.3194255E+00
 -0.9949031E-01 -0.5396742E-01  0.1457923E-01  -0.9476114E+00  0.3354978E-15  0.3194255E+00
 -0.8801380E-01 -0.5396742E-01  0.4862558E-01  -0.9476114E+00  0.3354978E-15  0.3194255E+00
 -0.8801380E-01  0.5396742E-01  0.4862558E-01  -0.9476114E+00  0.3354978E-15  0.3194255E+00
 BRILLOUIN-ZONE-CONVCELL_END
 ATOMS
   19    0.0000000000    4.5315083930    0.0000000000    0.0000000000   -0.0008211200    0.0000000000
   19    2.6666086680    0.0754169030    0.0000000000    0.0000000000    0.0007182000    0.0000000000
   12   -0.9335440960    3.0870650800    5.1413261700    0.0000000000   -0.0002073300    0.0000000000
   12   -0.9335440960    6.1589468670    5.1413261700    0.0000000000    0.0006631000    0.0000000000
   12    1.7330645720    4.5626208990    5.1413261700    0.0000000000    0.0000475900    0.0000000000
   12    1.7330645720    7.7063989300    5.1413261700    0.0000000000    0.0001116300    0.0000000000
   12    1.7330645720    1.6227222560    5.1413261700    0.0000000000   -0.0002991400    0.0000000000
   14    0.0397630940    1.5355373020    2.3218204160    0.0002009500   -0.0000402700   -0.0000122600
   14    3.4263659580    1.5355373020    7.9608322220   -0.0002009500   -0.0000402700    0.0000122600
   14    3.5396110190    7.7217090300    7.8886764690    0.0000282200   -0.0001622300    0.0001674900
   14   -0.0734819920    7.7217090300    2.3939758710   -0.0000282200   -0.0001622300   -0.0001674900
   14    2.5843973740    6.1767821830    2.3686604080   -0.0000319600    0.0001262800    0.0002947500
   14    0.8817317700    6.1767821830    7.9139919330    0.0000319600    0.0001262800   -0.0002947500
   13    0.7619141480    3.0681231560    7.9386057510    0.0000575800    0.0002007100   -0.0002605200
   13    2.7042152120    3.0681231560    2.3440462810   -0.0000575800    0.0002007100    0.0002605200
    8   -0.0082766920    1.5699459680    3.9571716330    0.0006188700    0.0001386400    0.0001927500
    8    3.4744056200    1.5699459680    6.3254810160   -0.0006188700    0.0001386400   -0.0001927500
    8    3.4989000680    7.6685528190    6.2696876660   -0.0002415100   -0.0003668100   -0.0000353000
    8   -0.0327709500    7.6685528190    4.0129643760    0.0002415100   -0.0003668100    0.0000353000
    8    2.6097266010    6.1985434540    3.9978687290    0.0000011900    0.0001154800    0.0002377900
    8    0.8564023270    6.1985434540    6.2847839190   -0.0000011900    0.0001154800   -0.0002377900
    8    0.7961811200    3.0839871650    6.2029328920    0.0004442500    0.0001382300   -0.0003769000
    8    2.6699481240    3.0839871650    4.0797197460   -0.0004442500    0.0001382300    0.0003769000
    8    1.5090184290    1.9112529550    1.7256655640    0.0000018700   -0.0003707200    0.0002683400
    8    1.9571107990    1.9112529550    8.5569863140   -0.0000018700   -0.0003707200   -0.0002683400
    8   -0.2984899430    9.2375622310    1.7988965830   -0.0003139200    0.0000572000   -0.0002970100
    8    2.1137739010    7.1436690750    8.5061022190   -0.0002034600    0.0005813500   -0.0002699000
    8    1.3523553770    7.1436690750    1.7765502650    0.0002034600    0.0005813500    0.0002699000
    8    4.0101557510    6.8233597240    1.7815674520   -0.0000063600   -0.0003680900   -0.0000968600
    8   -0.5440265030    6.8233597240    8.5010851970    0.0000063600   -0.0003680900    0.0000968600
    8    2.3862893470    4.7068973040    1.7182270140   -0.0003253000    0.0000131900   -0.0007212200
    8    1.0798394770    4.7068973040    8.5644253260    0.0003253000    0.0000131900    0.0007212200
    8   -0.7891253380    2.5289378470    8.6048965690    0.0001117000    0.0000661500    0.0000783300
    8    4.2552546080    2.5289378470    1.6777559260   -0.0001117000    0.0000661500   -0.0000783300
    8   -0.0367860170    4.6671261550    4.0878788760   -0.0005098000   -0.0002471700    0.0003268900
    8    3.5029151610    4.6671261550    6.1947734640    0.0005098000   -0.0002471700   -0.0003268900
    8    2.6064343790    9.2620916320    4.1218989030   -0.0008038900    0.0001073700    0.0001853300
    8    0.8596948210    9.2620916320    6.1607531280    0.0008038900    0.0001073700   -0.0001853300
    1   -0.0254572940    4.5878349560    3.1257118670    0.0000200800    0.0001697800   -0.0001593000
    1    3.4915867150    4.5878349560    7.1569404730   -0.0000200800    0.0001697800    0.0001593000
    1    2.6686617570    0.1245469250    3.1640356670    0.0000790900   -0.0003232900    0.0003133900
    1    0.7974672830    0.1245469250    7.1186163650   -0.0000790900   -0.0003232900   -0.0003133900
   26   -0.9335440960    0.0491003220    5.1413261700    0.0000000000    0.0001154600    0.0000000000
   19   -1.8670885510    4.5315083930   10.2826531240    0.0000000000   -0.0008211200    0.0000000000
   19    0.7995201170    0.0754169030   10.2826531240    0.0000000000    0.0007182000    0.0000000000
   19    5.3332162400    4.5315083930    0.0000000000    0.0000000000   -0.0008211200    0.0000000000
   12    4.3996721440    3.0870650800    5.1413261700    0.0000000000   -0.0002073300    0.0000000000
   12    4.3996721440    6.1589468670    5.1413261700    0.0000000000    0.0006631000    0.0000000000
    8    3.7646190370    9.2375622310    8.4837559110    0.0003139200    0.0000572000    0.0002970100
   26    4.3996721440    0.0491003220    5.1413261700    0.0000000000    0.0001154600    0.0000000000
   19    3.4661276890    4.5315083930   10.2826531240    0.0000000000   -0.0008211200    0.0000000000
 FRAMES
1      0.0000000000    0.0000000000    0.0000000000      5.3332162400    0.0000000000    0.0000000000
1      0.0000000000    0.0000000000    0.0000000000      0.0000000000    9.2648496080    0.0000000000
1      0.0000000000    0.0000000000    0.0000000000     -1.8670885510    0.0000000000   10.2826531240
1     -1.8670885510    0.0000000000   10.2826531240      3.4661276890    0.0000000000   10.2826531240
1     -1.8670885510    0.0000000000   10.2826531240     -1.8670885510    9.2648496080   10.2826531240
1      0.0000000000    9.2648496080    0.0000000000      5.3332162400    9.2648496080    0.0000000000
1      0.0000000000    9.2648496080    0.0000000000     -1.8670885510    9.2648496080   10.2826531240
1     -1.8670885510    9.2648496080   10.2826531240      3.4661276890    9.2648496080   10.2826531240
1      5.3332162400    0.0000000000    0.0000000000      5.3332162400    9.2648496080    0.0000000000
1      5.3332162400    0.0000000000    0.0000000000      3.4661276890    0.0000000000   10.2826531240
1      3.4661276890    0.0000000000   10.2826531240      3.4661276890    9.2648496080   10.2826531240
1      5.3332162400    9.2648496080    0.0000000000      3.4661276890    9.2648496080   10.2826531240
