 INFO
nunit      1    1    1
unit   cell
celltype   primcell
shape   parapipedal
 END_INFO
 DIM-GROUP
           3           1
 PRIMVEC
    5.3039830790    0.0000000000    0.0000000000
    0.0000000000    9.2241855690    0.0000000000
   -1.7970722060    0.0000000000   10.0349912870
 CONVVEC
    5.3039830790    0.0000000000    0.0000000000
    0.0000000000    9.2241855690    0.0000000000
   -1.7970722060    0.0000000000   10.0349912870
 PRIMCOORD
          44           1
 19      0.0000000000     4.5938031170     0.0000000000     0.0000000000    -0.0003056600     0.0000000000
 19      2.6519918810     0.0051624720     0.0000000000     0.0000000000     0.0002544800     0.0000000000
 12     -0.8985373040     0.0337748740     5.0174956010     0.0000000000    -0.0001514200     0.0000000000
 12     -0.8985373040     3.0589177960     5.0174956010     0.0000000000    -0.0000418100     0.0000000000
 12     -0.8985373040     6.1419408270     5.0174956010     0.0000000000    -0.0002974900     0.0000000000
 12      1.7534545770     7.7107046320     5.0174956010     0.0000000000     0.0000742700     0.0000000000
 12      1.7534545770     1.5556753990     5.0174956010     0.0000000000    -0.0001299200     0.0000000000
 26      1.7534545770     4.5422370590     5.0174956010     0.0000000000     0.0003219300     0.0000000000
 14      0.0472333150     1.5196327470     2.2306447790    -0.0000559200     0.0001925200    -0.0008559200
 14      3.4596757850     1.5196327470     7.8043462730     0.0000559200     0.0001925200     0.0008559200
 14      3.5635702440     7.6969535920     7.7473181830     0.0001500900     0.0001315000     0.0002384900
 14     -0.0566611970     7.6969535920     2.2876731700    -0.0001500900     0.0001315000    -0.0002384900
 14      2.5951726580     6.1591167960     2.2699372450    -0.0001959700    -0.0004862000    -0.0006435100
 14      0.9117363890     6.1591167960     7.7650545490     0.0001959700    -0.0004862000     0.0006435100
 13      0.8026143760     3.0529368340     7.7896399000    -0.0000078500    -0.0000708700     0.0000811400
 13      2.7042944910     3.0529368340     2.2453511520     0.0000078500    -0.0000708700    -0.0000811400
  8     -0.0126910740     1.4997973460     3.8617789750    -0.0000822400    -0.0001050000    -0.0007049000
  8      3.5196001220     1.4997973460     6.1732119260     0.0000822400    -0.0001050000     0.0007049000
  8      3.5373831890     7.6854854620     6.1294826200    -0.0000820400     0.0001717700     0.0006272900
  8     -0.0304740610     7.6854854620     3.9055082810     0.0000820400     0.0001717700    -0.0006272900
  8      2.6350806200     6.2206604290     3.8932306840     0.0001694500     0.0000684500    -0.0006160200
  8      0.8718288000     6.2206604290     6.1417599160    -0.0001694500     0.0000684500     0.0006160200
  8      0.8232967340     3.0269151910     6.0552889700    -0.0002049400    -0.0000827900    -0.0001821500
  8      2.6836125780     3.0269151910     3.9797022330     0.0002049400    -0.0000827900     0.0001821500
  8      1.5292419150     1.8701775050     1.6569194630     0.0001535400     0.0001028000     0.0004357000
  8      1.9776672650     1.8701775050     8.3780715890    -0.0001535400     0.0001028000    -0.0004357000
  8      4.9864225030     9.1983972020     1.6759483250     0.0001356500     0.0000304300     0.0001065600
  8     -1.4795134140     9.1983972020     8.3590428770    -0.0001356500     0.0000304300    -0.0001065600
  8      2.1215824530     7.1521091330     8.3540147560     0.0004037200    -0.0004126000    -0.0006655900
  8      1.3853267270     7.1521091330     1.6809762950    -0.0004037200    -0.0004126000     0.0006655900
  8      4.0357752280     6.7533320960     1.6667220820    -0.0001531800     0.0003991600     0.0006302200
  8     -0.5288661540     6.7533320960     8.3682695620     0.0001531800     0.0003991600    -0.0006302200
  8      2.3503869170     4.6880791310     1.6407400620    -0.0000895100    -0.0001134400     0.0002366400
  8      1.1565221310     4.6880791310     8.3942508390     0.0000895100    -0.0001134400    -0.0002366400
  8     -0.7593897970     2.5501085380     8.4402943110    -0.0000294600     0.0001840100    -0.0002646100
  8      4.2662987640     2.5501085380     1.5946970410     0.0000294600     0.0001840100     0.0002646100
  8     -0.0769569720     4.6442070740     3.9300233710     0.0002691300     0.0000582700     0.0003658300
  8      3.5838660200     4.6442070740     6.1049675300    -0.0002691300     0.0000582700    -0.0003658300
  8      2.6459830440     9.2159523350     3.9816539920     0.0001494700     0.0000211700    -0.0000007500
  8      0.8609260550     9.2159523350     6.0533375110    -0.0001494700     0.0000211700     0.0000007500
  1      0.0177803260     4.5578934230     2.9728124710    -0.0002493500    -0.0001443900    -0.0007471900
  1      3.4891288520     4.5578934230     7.0621790330     0.0002493500    -0.0001443900     0.0007471900
  1      2.6217770490     0.1536269230     3.0300136110    -0.0000969100     0.0001930200    -0.0000692300
  1      0.8851321040     0.1536269230     7.0049775910     0.0000969100     0.0001930200     0.0000692300
 CONVCOORD
          44           1
 19      0.0000000000     4.5938031170     0.0000000000
 19      2.6519918810     0.0051624720     0.0000000000
 12     -0.8985373040     0.0337748740     5.0174956010
 12     -0.8985373040     3.0589177960     5.0174956010
 12     -0.8985373040     6.1419408270     5.0174956010
 12      1.7534545770     7.7107046320     5.0174956010
 12      1.7534545770     1.5556753990     5.0174956010
 26      1.7534545770     4.5422370590     5.0174956010
 14      0.0472333150     1.5196327470     2.2306447790
 14      3.4596757850     1.5196327470     7.8043462730
 14      3.5635702440     7.6969535920     7.7473181830
 14     -0.0566611970     7.6969535920     2.2876731700
 14      2.5951726580     6.1591167960     2.2699372450
 14      0.9117363890     6.1591167960     7.7650545490
 13      0.8026143760     3.0529368340     7.7896399000
 13      2.7042944910     3.0529368340     2.2453511520
  8     -0.0126910740     1.4997973460     3.8617789750
  8      3.5196001220     1.4997973460     6.1732119260
  8      3.5373831890     7.6854854620     6.1294826200
  8     -0.0304740610     7.6854854620     3.9055082810
  8      2.6350806200     6.2206604290     3.8932306840
  8      0.8718288000     6.2206604290     6.1417599160
  8      0.8232967340     3.0269151910     6.0552889700
  8      2.6836125780     3.0269151910     3.9797022330
  8      1.5292419150     1.8701775050     1.6569194630
  8      1.9776672650     1.8701775050     8.3780715890
  8      4.9864225030     9.1983972020     1.6759483250
  8     -1.4795134140     9.1983972020     8.3590428770
  8      2.1215824530     7.1521091330     8.3540147560
  8      1.3853267270     7.1521091330     1.6809762950
  8      4.0357752280     6.7533320960     1.6667220820
  8     -0.5288661540     6.7533320960     8.3682695620
  8      2.3503869170     4.6880791310     1.6407400620
  8      1.1565221310     4.6880791310     8.3942508390
  8     -0.7593897970     2.5501085380     8.4402943110
  8      4.2662987640     2.5501085380     1.5946970410
  8     -0.0769569720     4.6442070740     3.9300233710
  8      3.5838660200     4.6442070740     6.1049675300
  8      2.6459830440     9.2159523350     3.9816539920
  8      0.8609260550     9.2159523350     6.0533375110
  1      0.0177803260     4.5578934230     2.9728124710
  1      3.4891288520     4.5578934230     7.0621790330
  1      2.6217770490     0.1536269230     3.0300136110
  1      0.8851321040     0.1536269230     7.0049775910
 RECIP-PRIMVEC
    0.1885375547   -0.0000000000    0.0337634174

    0.0000000000    0.1084106551   -0.0000000000

    0.0000000000    0.0000000000    0.0996513073

 RECIP-CONVVEC
    0.1885375547   -0.0000000000    0.0337634174

    0.0000000000    0.1084106551   -0.0000000000

    0.0000000000    0.0000000000    0.0996513073

 WIGNER-SEITZ-PRIMCELL
           4
 -0.2651992E+01  0.4612093E+01 -0.4703486E+01  -0.3299032E+00  0.7116571E-16 -0.9440148E+00
 -0.8549193E+00  0.4612093E+01 -0.5331505E+01  -0.3299032E+00  0.7116571E-16 -0.9440148E+00
 -0.8549193E+00 -0.4612093E+01 -0.5331505E+01  -0.3299032E+00  0.7116571E-16 -0.9440148E+00
 -0.2651992E+01 -0.4612093E+01 -0.4703486E+01  -0.3299032E+00  0.7116571E-16 -0.9440148E+00
           4
 -0.2651992E+01  0.4612093E+01 -0.4703486E+01  -0.1000000E+01  0.4814400E-16 -0.4545614E-32
 -0.2651992E+01 -0.4612093E+01 -0.4703486E+01  -0.1000000E+01  0.4814400E-16 -0.4545614E-32
 -0.2651992E+01 -0.4612093E+01  0.4703486E+01  -0.1000000E+01  0.4814400E-16 -0.4545614E-32
 -0.2651992E+01  0.4612093E+01  0.4703486E+01  -0.1000000E+01  0.4814400E-16 -0.4545614E-32
           6
  0.2651992E+01 -0.4612093E+01  0.4703486E+01  -0.0000000E+00 -0.1000000E+01  0.0000000E+00
  0.8549193E+00 -0.4612093E+01  0.5331505E+01  -0.0000000E+00 -0.1000000E+01  0.0000000E+00
 -0.2651992E+01 -0.4612093E+01  0.4703486E+01  -0.0000000E+00 -0.1000000E+01  0.0000000E+00
 -0.2651992E+01 -0.4612093E+01 -0.4703486E+01  -0.0000000E+00 -0.1000000E+01  0.0000000E+00
 -0.8549193E+00 -0.4612093E+01 -0.5331505E+01  -0.0000000E+00 -0.1000000E+01  0.0000000E+00
  0.2651992E+01 -0.4612093E+01 -0.4703486E+01  -0.0000000E+00 -0.1000000E+01  0.0000000E+00
           4
  0.2651992E+01  0.4612093E+01 -0.4703486E+01   0.1762763E+00  0.1081068E-15 -0.9843407E+00
  0.2651992E+01 -0.4612093E+01 -0.4703486E+01   0.1762763E+00  0.1081068E-15 -0.9843407E+00
 -0.8549193E+00 -0.4612093E+01 -0.5331505E+01   0.1762763E+00  0.1081068E-15 -0.9843407E+00
 -0.8549193E+00  0.4612093E+01 -0.5331505E+01   0.1762763E+00  0.1081068E-15 -0.9843407E+00
           4
 -0.2651992E+01  0.4612093E+01  0.4703486E+01  -0.1762763E+00 -0.0000000E+00  0.9843407E+00
 -0.2651992E+01 -0.4612093E+01  0.4703486E+01  -0.1762763E+00 -0.0000000E+00  0.9843407E+00
  0.8549193E+00 -0.4612093E+01  0.5331505E+01  -0.1762763E+00 -0.0000000E+00  0.9843407E+00
  0.8549193E+00  0.4612093E+01  0.5331505E+01  -0.1762763E+00 -0.0000000E+00  0.9843407E+00
           6
  0.2651992E+01  0.4612093E+01 -0.4703486E+01   0.0000000E+00  0.1000000E+01  0.5332794E-15
 -0.8549193E+00  0.4612093E+01 -0.5331505E+01   0.0000000E+00  0.1000000E+01  0.5332794E-15
 -0.2651992E+01  0.4612093E+01 -0.4703486E+01   0.0000000E+00  0.1000000E+01  0.5332794E-15
 -0.2651992E+01  0.4612093E+01  0.4703486E+01   0.0000000E+00  0.1000000E+01  0.5332794E-15
  0.8549193E+00  0.4612093E+01  0.5331505E+01   0.0000000E+00  0.1000000E+01  0.5332794E-15
  0.2651992E+01  0.4612093E+01  0.4703486E+01   0.0000000E+00  0.1000000E+01  0.5332794E-15
           4
  0.2651992E+01  0.4612093E+01  0.4703486E+01   0.1000000E+01 -0.4814400E-16  0.4545614E-32
  0.2651992E+01 -0.4612093E+01  0.4703486E+01   0.1000000E+01 -0.4814400E-16  0.4545614E-32
  0.2651992E+01 -0.4612093E+01 -0.4703486E+01   0.1000000E+01 -0.4814400E-16  0.4545614E-32
  0.2651992E+01  0.4612093E+01 -0.4703486E+01   0.1000000E+01 -0.4814400E-16  0.4545614E-32
           4
  0.8549193E+00 -0.4612093E+01  0.5331505E+01   0.3299032E+00 -0.3395165E-16  0.9440148E+00
  0.2651992E+01 -0.4612093E+01  0.4703486E+01   0.3299032E+00 -0.3395165E-16  0.9440148E+00
  0.2651992E+01  0.4612093E+01  0.4703486E+01   0.3299032E+00 -0.3395165E-16  0.9440148E+00
  0.8549193E+00  0.4612093E+01  0.5331505E+01   0.3299032E+00 -0.3395165E-16  0.9440148E+00
 WIGNER-SEITZ-PRIMCELL_END
 WIGNER-SEITZ-CONVCELL
           4
 -0.2651992E+01  0.4612093E+01 -0.4703486E+01  -0.3299032E+00  0.7116571E-16 -0.9440148E+00
 -0.8549193E+00  0.4612093E+01 -0.5331505E+01  -0.3299032E+00  0.7116571E-16 -0.9440148E+00
 -0.8549193E+00 -0.4612093E+01 -0.5331505E+01  -0.3299032E+00  0.7116571E-16 -0.9440148E+00
 -0.2651992E+01 -0.4612093E+01 -0.4703486E+01  -0.3299032E+00  0.7116571E-16 -0.9440148E+00
           4
 -0.2651992E+01  0.4612093E+01 -0.4703486E+01  -0.1000000E+01  0.4814400E-16 -0.4545614E-32
 -0.2651992E+01 -0.4612093E+01 -0.4703486E+01  -0.1000000E+01  0.4814400E-16 -0.4545614E-32
 -0.2651992E+01 -0.4612093E+01  0.4703486E+01  -0.1000000E+01  0.4814400E-16 -0.4545614E-32
 -0.2651992E+01  0.4612093E+01  0.4703486E+01  -0.1000000E+01  0.4814400E-16 -0.4545614E-32
           6
  0.2651992E+01 -0.4612093E+01  0.4703486E+01  -0.0000000E+00 -0.1000000E+01  0.0000000E+00
  0.8549193E+00 -0.4612093E+01  0.5331505E+01  -0.0000000E+00 -0.1000000E+01  0.0000000E+00
 -0.2651992E+01 -0.4612093E+01  0.4703486E+01  -0.0000000E+00 -0.1000000E+01  0.0000000E+00
 -0.2651992E+01 -0.4612093E+01 -0.4703486E+01  -0.0000000E+00 -0.1000000E+01  0.0000000E+00
 -0.8549193E+00 -0.4612093E+01 -0.5331505E+01  -0.0000000E+00 -0.1000000E+01  0.0000000E+00
  0.2651992E+01 -0.4612093E+01 -0.4703486E+01  -0.0000000E+00 -0.1000000E+01  0.0000000E+00
           4
  0.2651992E+01  0.4612093E+01 -0.4703486E+01   0.1762763E+00  0.1081068E-15 -0.9843407E+00
  0.2651992E+01 -0.4612093E+01 -0.4703486E+01   0.1762763E+00  0.1081068E-15 -0.9843407E+00
 -0.8549193E+00 -0.4612093E+01 -0.5331505E+01   0.1762763E+00  0.1081068E-15 -0.9843407E+00
 -0.8549193E+00  0.4612093E+01 -0.5331505E+01   0.1762763E+00  0.1081068E-15 -0.9843407E+00
           4
 -0.2651992E+01  0.4612093E+01  0.4703486E+01  -0.1762763E+00 -0.0000000E+00  0.9843407E+00
 -0.2651992E+01 -0.4612093E+01  0.4703486E+01  -0.1762763E+00 -0.0000000E+00  0.9843407E+00
  0.8549193E+00 -0.4612093E+01  0.5331505E+01  -0.1762763E+00 -0.0000000E+00  0.9843407E+00
  0.8549193E+00  0.4612093E+01  0.5331505E+01  -0.1762763E+00 -0.0000000E+00  0.9843407E+00
           6
  0.2651992E+01  0.4612093E+01 -0.4703486E+01   0.0000000E+00  0.1000000E+01  0.5332794E-15
 -0.8549193E+00  0.4612093E+01 -0.5331505E+01   0.0000000E+00  0.1000000E+01  0.5332794E-15
 -0.2651992E+01  0.4612093E+01 -0.4703486E+01   0.0000000E+00  0.1000000E+01  0.5332794E-15
 -0.2651992E+01  0.4612093E+01  0.4703486E+01   0.0000000E+00  0.1000000E+01  0.5332794E-15
  0.8549193E+00  0.4612093E+01  0.5331505E+01   0.0000000E+00  0.1000000E+01  0.5332794E-15
  0.2651992E+01  0.4612093E+01  0.4703486E+01   0.0000000E+00  0.1000000E+01  0.5332794E-15
           4
  0.2651992E+01  0.4612093E+01  0.4703486E+01   0.1000000E+01 -0.4814400E-16  0.4545614E-32
  0.2651992E+01 -0.4612093E+01  0.4703486E+01   0.1000000E+01 -0.4814400E-16  0.4545614E-32
  0.2651992E+01 -0.4612093E+01 -0.4703486E+01   0.1000000E+01 -0.4814400E-16  0.4545614E-32
  0.2651992E+01  0.4612093E+01 -0.4703486E+01   0.1000000E+01 -0.4814400E-16  0.4545614E-32
           4
  0.8549193E+00 -0.4612093E+01  0.5331505E+01   0.3299032E+00 -0.3395165E-16  0.9440148E+00
  0.2651992E+01 -0.4612093E+01  0.4703486E+01   0.3299032E+00 -0.3395165E-16  0.9440148E+00
  0.2651992E+01  0.4612093E+01  0.4703486E+01   0.3299032E+00 -0.3395165E-16  0.9440148E+00
  0.8549193E+00  0.4612093E+01  0.5331505E+01   0.3299032E+00 -0.3395165E-16  0.9440148E+00
 WIGNER-SEITZ-CONVCELL_END
 BRILLOUIN-ZONE-PRIMCELL
           4
  0.1001684E+00  0.5420533E-01 -0.1606224E-01   0.9440148E+00  0.0000000E+00 -0.3299032E+00
  0.1001684E+00 -0.5420533E-01 -0.1606224E-01   0.9440148E+00  0.0000000E+00 -0.3299032E+00
  0.8836916E-01 -0.5420533E-01 -0.4982565E-01   0.9440148E+00  0.0000000E+00 -0.3299032E+00
  0.8836916E-01  0.5420533E-01 -0.4982565E-01   0.9440148E+00  0.0000000E+00 -0.3299032E+00
           4
 -0.8836916E-01 -0.5420533E-01 -0.4982565E-01  -0.2722433E-16  0.9053731E-16 -0.1000000E+01
 -0.8836916E-01  0.5420533E-01 -0.4982565E-01  -0.2722433E-16  0.9053731E-16 -0.1000000E+01
  0.8836916E-01  0.5420533E-01 -0.4982565E-01  -0.2722433E-16  0.9053731E-16 -0.1000000E+01
  0.8836916E-01 -0.5420533E-01 -0.4982565E-01  -0.2722433E-16  0.9053731E-16 -0.1000000E+01
           6
  0.8836916E-01 -0.5420533E-01  0.4982565E-01  -0.0000000E+00 -0.1000000E+01  0.0000000E+00
 -0.8836916E-01 -0.5420533E-01  0.4982565E-01  -0.0000000E+00 -0.1000000E+01  0.0000000E+00
 -0.1001684E+00 -0.5420533E-01  0.1606224E-01  -0.0000000E+00 -0.1000000E+01  0.0000000E+00
 -0.8836916E-01 -0.5420533E-01 -0.4982565E-01  -0.0000000E+00 -0.1000000E+01  0.0000000E+00
  0.8836916E-01 -0.5420533E-01 -0.4982565E-01  -0.0000000E+00 -0.1000000E+01  0.0000000E+00
  0.1001684E+00 -0.5420533E-01 -0.1606224E-01  -0.0000000E+00 -0.1000000E+01  0.0000000E+00
           4
  0.8836916E-01  0.5420533E-01  0.4982565E-01   0.9843407E+00  0.1157923E-15  0.1762763E+00
  0.8836916E-01 -0.5420533E-01  0.4982565E-01   0.9843407E+00  0.1157923E-15  0.1762763E+00
  0.1001684E+00 -0.5420533E-01 -0.1606224E-01   0.9843407E+00  0.1157923E-15  0.1762763E+00
  0.1001684E+00  0.5420533E-01 -0.1606224E-01   0.9843407E+00  0.1157923E-15  0.1762763E+00
           4
 -0.8836916E-01  0.5420533E-01 -0.4982565E-01  -0.9843407E+00 -0.1942323E-15 -0.1762763E+00
 -0.8836916E-01 -0.5420533E-01 -0.4982565E-01  -0.9843407E+00 -0.1942323E-15 -0.1762763E+00
 -0.1001684E+00 -0.5420533E-01  0.1606224E-01  -0.9843407E+00 -0.1942323E-15 -0.1762763E+00
 -0.1001684E+00  0.5420533E-01  0.1606224E-01  -0.9843407E+00 -0.1942323E-15 -0.1762763E+00
           6
  0.1001684E+00  0.5420533E-01 -0.1606224E-01   0.0000000E+00  0.1000000E+01 -0.2907054E-15
  0.8836916E-01  0.5420533E-01 -0.4982565E-01   0.0000000E+00  0.1000000E+01 -0.2907054E-15
 -0.8836916E-01  0.5420533E-01 -0.4982565E-01   0.0000000E+00  0.1000000E+01 -0.2907054E-15
 -0.1001684E+00  0.5420533E-01  0.1606224E-01   0.0000000E+00  0.1000000E+01 -0.2907054E-15
 -0.8836916E-01  0.5420533E-01  0.4982565E-01   0.0000000E+00  0.1000000E+01 -0.2907054E-15
  0.8836916E-01  0.5420533E-01  0.4982565E-01   0.0000000E+00  0.1000000E+01 -0.2907054E-15
           4
 -0.8836916E-01 -0.5420533E-01  0.4982565E-01  -0.0000000E+00 -0.5444866E-16  0.1000000E+01
  0.8836916E-01 -0.5420533E-01  0.4982565E-01  -0.0000000E+00 -0.5444866E-16  0.1000000E+01
  0.8836916E-01  0.5420533E-01  0.4982565E-01  -0.0000000E+00 -0.5444866E-16  0.1000000E+01
 -0.8836916E-01  0.5420533E-01  0.4982565E-01  -0.0000000E+00 -0.5444866E-16  0.1000000E+01
           4
 -0.8836916E-01  0.5420533E-01  0.4982565E-01  -0.9440148E+00  0.7689594E-16  0.3299032E+00
 -0.1001684E+00  0.5420533E-01  0.1606224E-01  -0.9440148E+00  0.7689594E-16  0.3299032E+00
 -0.1001684E+00 -0.5420533E-01  0.1606224E-01  -0.9440148E+00  0.7689594E-16  0.3299032E+00
 -0.8836916E-01 -0.5420533E-01  0.4982565E-01  -0.9440148E+00  0.7689594E-16  0.3299032E+00
 BRILLOUIN-ZONE-PRIMCELL_END
 BRILLOUIN-ZONE-CONVCELL
           4
  0.1001684E+00  0.5420533E-01 -0.1606224E-01   0.9440148E+00  0.0000000E+00 -0.3299032E+00
  0.1001684E+00 -0.5420533E-01 -0.1606224E-01   0.9440148E+00  0.0000000E+00 -0.3299032E+00
  0.8836916E-01 -0.5420533E-01 -0.4982565E-01   0.9440148E+00  0.0000000E+00 -0.3299032E+00
  0.8836916E-01  0.5420533E-01 -0.4982565E-01   0.9440148E+00  0.0000000E+00 -0.3299032E+00
           4
 -0.8836916E-01 -0.5420533E-01 -0.4982565E-01  -0.2722433E-16  0.9053731E-16 -0.1000000E+01
 -0.8836916E-01  0.5420533E-01 -0.4982565E-01  -0.2722433E-16  0.9053731E-16 -0.1000000E+01
  0.8836916E-01  0.5420533E-01 -0.4982565E-01  -0.2722433E-16  0.9053731E-16 -0.1000000E+01
  0.8836916E-01 -0.5420533E-01 -0.4982565E-01  -0.2722433E-16  0.9053731E-16 -0.1000000E+01
           6
  0.8836916E-01 -0.5420533E-01  0.4982565E-01  -0.0000000E+00 -0.1000000E+01  0.0000000E+00
 -0.8836916E-01 -0.5420533E-01  0.4982565E-01  -0.0000000E+00 -0.1000000E+01  0.0000000E+00
 -0.1001684E+00 -0.5420533E-01  0.1606224E-01  -0.0000000E+00 -0.1000000E+01  0.0000000E+00
 -0.8836916E-01 -0.5420533E-01 -0.4982565E-01  -0.0000000E+00 -0.1000000E+01  0.0000000E+00
  0.8836916E-01 -0.5420533E-01 -0.4982565E-01  -0.0000000E+00 -0.1000000E+01  0.0000000E+00
  0.1001684E+00 -0.5420533E-01 -0.1606224E-01  -0.0000000E+00 -0.1000000E+01  0.0000000E+00
           4
  0.8836916E-01  0.5420533E-01  0.4982565E-01   0.9843407E+00  0.1157923E-15  0.1762763E+00
  0.8836916E-01 -0.5420533E-01  0.4982565E-01   0.9843407E+00  0.1157923E-15  0.1762763E+00
  0.1001684E+00 -0.5420533E-01 -0.1606224E-01   0.9843407E+00  0.1157923E-15  0.1762763E+00
  0.1001684E+00  0.5420533E-01 -0.1606224E-01   0.9843407E+00  0.1157923E-15  0.1762763E+00
           4
 -0.8836916E-01  0.5420533E-01 -0.4982565E-01  -0.9843407E+00 -0.1942323E-15 -0.1762763E+00
 -0.8836916E-01 -0.5420533E-01 -0.4982565E-01  -0.9843407E+00 -0.1942323E-15 -0.1762763E+00
 -0.1001684E+00 -0.5420533E-01  0.1606224E-01  -0.9843407E+00 -0.1942323E-15 -0.1762763E+00
 -0.1001684E+00  0.5420533E-01  0.1606224E-01  -0.9843407E+00 -0.1942323E-15 -0.1762763E+00
           6
  0.1001684E+00  0.5420533E-01 -0.1606224E-01   0.0000000E+00  0.1000000E+01 -0.2907054E-15
  0.8836916E-01  0.5420533E-01 -0.4982565E-01   0.0000000E+00  0.1000000E+01 -0.2907054E-15
 -0.8836916E-01  0.5420533E-01 -0.4982565E-01   0.0000000E+00  0.1000000E+01 -0.2907054E-15
 -0.1001684E+00  0.5420533E-01  0.1606224E-01   0.0000000E+00  0.1000000E+01 -0.2907054E-15
 -0.8836916E-01  0.5420533E-01  0.4982565E-01   0.0000000E+00  0.1000000E+01 -0.2907054E-15
  0.8836916E-01  0.5420533E-01  0.4982565E-01   0.0000000E+00  0.1000000E+01 -0.2907054E-15
           4
 -0.8836916E-01 -0.5420533E-01  0.4982565E-01  -0.0000000E+00 -0.5444866E-16  0.1000000E+01
  0.8836916E-01 -0.5420533E-01  0.4982565E-01  -0.0000000E+00 -0.5444866E-16  0.1000000E+01
  0.8836916E-01  0.5420533E-01  0.4982565E-01  -0.0000000E+00 -0.5444866E-16  0.1000000E+01
 -0.8836916E-01  0.5420533E-01  0.4982565E-01  -0.0000000E+00 -0.5444866E-16  0.1000000E+01
           4
 -0.8836916E-01  0.5420533E-01  0.4982565E-01  -0.9440148E+00  0.7689594E-16  0.3299032E+00
 -0.1001684E+00  0.5420533E-01  0.1606224E-01  -0.9440148E+00  0.7689594E-16  0.3299032E+00
 -0.1001684E+00 -0.5420533E-01  0.1606224E-01  -0.9440148E+00  0.7689594E-16  0.3299032E+00
 -0.8836916E-01 -0.5420533E-01  0.4982565E-01  -0.9440148E+00  0.7689594E-16  0.3299032E+00
 BRILLOUIN-ZONE-CONVCELL_END
 ATOMS
   19    0.0000000000    4.5938031170    0.0000000000    0.0000000000   -0.0003056600    0.0000000000
   19    2.6519918810    0.0051624720    0.0000000000    0.0000000000    0.0002544800    0.0000000000
   12   -0.8985373040    0.0337748740    5.0174956010    0.0000000000   -0.0001514200    0.0000000000
   12   -0.8985373040    3.0589177960    5.0174956010    0.0000000000   -0.0000418100    0.0000000000
   12   -0.8985373040    6.1419408270    5.0174956010    0.0000000000   -0.0002974900    0.0000000000
   12    1.7534545770    7.7107046320    5.0174956010    0.0000000000    0.0000742700    0.0000000000
   12    1.7534545770    1.5556753990    5.0174956010    0.0000000000   -0.0001299200    0.0000000000
   26    1.7534545770    4.5422370590    5.0174956010    0.0000000000    0.0003219300    0.0000000000
   14    0.0472333150    1.5196327470    2.2306447790   -0.0000559200    0.0001925200   -0.0008559200
   14    3.4596757850    1.5196327470    7.8043462730    0.0000559200    0.0001925200    0.0008559200
   14    3.5635702440    7.6969535920    7.7473181830    0.0001500900    0.0001315000    0.0002384900
   14   -0.0566611970    7.6969535920    2.2876731700   -0.0001500900    0.0001315000   -0.0002384900
   14    2.5951726580    6.1591167960    2.2699372450   -0.0001959700   -0.0004862000   -0.0006435100
   14    0.9117363890    6.1591167960    7.7650545490    0.0001959700   -0.0004862000    0.0006435100
   13    0.8026143760    3.0529368340    7.7896399000   -0.0000078500   -0.0000708700    0.0000811400
   13    2.7042944910    3.0529368340    2.2453511520    0.0000078500   -0.0000708700   -0.0000811400
    8   -0.0126910740    1.4997973460    3.8617789750   -0.0000822400   -0.0001050000   -0.0007049000
    8    3.5196001220    1.4997973460    6.1732119260    0.0000822400   -0.0001050000    0.0007049000
    8    3.5373831890    7.6854854620    6.1294826200   -0.0000820400    0.0001717700    0.0006272900
    8   -0.0304740610    7.6854854620    3.9055082810    0.0000820400    0.0001717700   -0.0006272900
    8    2.6350806200    6.2206604290    3.8932306840    0.0001694500    0.0000684500   -0.0006160200
    8    0.8718288000    6.2206604290    6.1417599160   -0.0001694500    0.0000684500    0.0006160200
    8    0.8232967340    3.0269151910    6.0552889700   -0.0002049400   -0.0000827900   -0.0001821500
    8    2.6836125780    3.0269151910    3.9797022330    0.0002049400   -0.0000827900    0.0001821500
    8    1.5292419150    1.8701775050    1.6569194630    0.0001535400    0.0001028000    0.0004357000
    8    1.9776672650    1.8701775050    8.3780715890   -0.0001535400    0.0001028000   -0.0004357000
    8    4.9864225030    9.1983972020    1.6759483250    0.0001356500    0.0000304300    0.0001065600
    8   -1.4795134140    9.1983972020    8.3590428770   -0.0001356500    0.0000304300   -0.0001065600
    8    2.1215824530    7.1521091330    8.3540147560    0.0004037200   -0.0004126000   -0.0006655900
    8    1.3853267270    7.1521091330    1.6809762950   -0.0004037200   -0.0004126000    0.0006655900
    8    4.0357752280    6.7533320960    1.6667220820   -0.0001531800    0.0003991600    0.0006302200
    8   -0.5288661540    6.7533320960    8.3682695620    0.0001531800    0.0003991600   -0.0006302200
    8    2.3503869170    4.6880791310    1.6407400620   -0.0000895100   -0.0001134400    0.0002366400
    8    1.1565221310    4.6880791310    8.3942508390    0.0000895100   -0.0001134400   -0.0002366400
    8   -0.7593897970    2.5501085380    8.4402943110   -0.0000294600    0.0001840100   -0.0002646100
    8    4.2662987640    2.5501085380    1.5946970410    0.0000294600    0.0001840100    0.0002646100
    8   -0.0769569720    4.6442070740    3.9300233710    0.0002691300    0.0000582700    0.0003658300
    8    3.5838660200    4.6442070740    6.1049675300   -0.0002691300    0.0000582700   -0.0003658300
    8    2.6459830440    9.2159523350    3.9816539920    0.0001494700    0.0000211700   -0.0000007500
    8    0.8609260550    9.2159523350    6.0533375110   -0.0001494700    0.0000211700    0.0000007500
    1    0.0177803260    4.5578934230    2.9728124710   -0.0002493500   -0.0001443900   -0.0007471900
    1    3.4891288520    4.5578934230    7.0621790330    0.0002493500   -0.0001443900    0.0007471900
    1    2.6217770490    0.1536269230    3.0300136110   -0.0000969100    0.0001930200   -0.0000692300
    1    0.8851321040    0.1536269230    7.0049775910    0.0000969100    0.0001930200    0.0000692300
   19   -1.7970722060    4.5938031170   10.0349912870    0.0000000000   -0.0003056600    0.0000000000
   19    0.8549196750    0.0051624720   10.0349912870    0.0000000000    0.0002544800    0.0000000000
   19    5.3039830790    4.5938031170    0.0000000000    0.0000000000   -0.0003056600    0.0000000000
   12    4.4054457750    0.0337748740    5.0174956010    0.0000000000   -0.0001514200    0.0000000000
   12    4.4054457750    3.0589177960    5.0174956010    0.0000000000   -0.0000418100    0.0000000000
   12    4.4054457750    6.1419408270    5.0174956010    0.0000000000   -0.0002974900    0.0000000000
   19    3.5069108730    4.5938031170   10.0349912870    0.0000000000   -0.0003056600    0.0000000000
 FRAMES
1      0.0000000000    0.0000000000    0.0000000000      5.3039830790    0.0000000000    0.0000000000
1      0.0000000000    0.0000000000    0.0000000000      0.0000000000    9.2241855690    0.0000000000
1      0.0000000000    0.0000000000    0.0000000000     -1.7970722060    0.0000000000   10.0349912870
1     -1.7970722060    0.0000000000   10.0349912870      3.5069108730    0.0000000000   10.0349912870
1     -1.7970722060    0.0000000000   10.0349912870     -1.7970722060    9.2241855690   10.0349912870
1      0.0000000000    9.2241855690    0.0000000000      5.3039830790    9.2241855690    0.0000000000
1      0.0000000000    9.2241855690    0.0000000000     -1.7970722060    9.2241855690   10.0349912870
1     -1.7970722060    9.2241855690   10.0349912870      3.5069108730    9.2241855690   10.0349912870
1      5.3039830790    0.0000000000    0.0000000000      5.3039830790    9.2241855690    0.0000000000
1      5.3039830790    0.0000000000    0.0000000000      3.5069108730    0.0000000000   10.0349912870
1      3.5069108730    0.0000000000   10.0349912870      3.5069108730    9.2241855690   10.0349912870
1      5.3039830790    9.2241855690    0.0000000000      3.5069108730    9.2241855690   10.0349912870
