 INFO
nunit      1    1    1
unit   cell
celltype   primcell
shape   parapipedal
 END_INFO
 DIM-GROUP
           3           1
 PRIMVEC
    5.3256066180    0.0000000000    0.0000000000
    0.0000000000    9.2452584150    0.0000000000
   -1.8340856630    0.0000000000   10.2591367520
 CONVVEC
    5.3256066180    0.0000000000    0.0000000000
    0.0000000000    9.2452584150    0.0000000000
   -1.8340856630    0.0000000000   10.2591367520
 PRIMCOORD
          43           1
 19      0.0000000000     4.5838127140     0.0000000000     0.0000000000     0.0005484200     0.0000000000
 19      2.6628039430     0.0389682010     0.0000000000     0.0000000000    -0.0008708600     0.0000000000
 12     -0.9170416550    -0.2176767260     5.1295671550     0.0000000000    -0.0000395600     0.0000000000
 12      1.7457622830     4.6722042040     5.1295671550     0.0000000000    -0.0009783400     0.0000000000
 12      1.7457622830     7.5931737890     5.1295671550     0.0000000000    -0.0009065000     0.0000000000
 12      1.7457622830     1.4819623290     5.1295671550     0.0000000000     0.0004154900     0.0000000000
 14     -0.0029519020     1.5081526840     2.3112480650     0.0003936400    -0.0001904500     0.0001662800
 14      3.4944765200     1.5081526840     7.9478863990    -0.0003936400    -0.0001904500    -0.0001662800
 14      3.5691809880     7.6818686620     7.8915679840     0.0000446000    -0.0001076300    -0.0002508200
 14     -0.0776563650     7.6818686620     2.3675660070    -0.0000446000    -0.0001076300     0.0002508200
 14      2.5412999790     6.1432468150     2.3178285230    -0.0001302800     0.0001996100     0.0002083700
 14      0.9502244560     6.1432468150     7.9413056220     0.0001302800     0.0001996100    -0.0002083700
 13      0.7968148920     3.0651474470     7.9550462080    -0.0000686400     0.0002458200     0.0000794600
 13      2.6947095190     3.0651474470     2.3040881020     0.0000686400     0.0002458200    -0.0000794600
  8     -0.0763824830     1.5768587180     3.9805159850     0.0001048800     0.0008178300     0.0002149000
  8      3.5679069440     1.5768587180     6.2786180170    -0.0001048800     0.0008178300    -0.0002149000
  8      3.4620671040     7.7015753610     6.2988022710    -0.0001713100     0.0000912200    -0.0000269600
  8      0.0294575960     7.7015753610     3.9603317310     0.0001713100     0.0000912200     0.0000269600
  8      2.4896324650     6.1058182390     3.9242867220    -0.0000729700    -0.0004806200    -0.0000436000
  8      1.0018921020     6.1058182390     6.3348475780     0.0000729700    -0.0004806200     0.0000436000
  8      0.7511988210     3.0386528280     6.1568350820    -0.0000683800    -0.0003653100    -0.0002014300
  8      2.7403259600     3.0386528280     4.1022989200     0.0000683800    -0.0003653100     0.0002014300
  8      1.4880646560     1.8883010720     1.8047621770     0.0001405900    -0.0002921000    -0.0000094500
  8      2.0034597330     1.8883010720     8.4543713640    -0.0001405900    -0.0002921000     0.0000094500
  8     -0.3176325730     9.2115775090     1.7750675660     0.0002527500    -0.0001313900    -0.0000509000
  8      3.8091571660     9.2115775090     8.4840665900    -0.0002527500    -0.0001313900     0.0000509000
  8      2.1730667300     7.0986673320     8.5809538710     0.0000176200     0.0001963200    -0.0001060600
  8      1.3184576810     7.0986673320     1.6781804390    -0.0000176200     0.0001963200     0.0001060600
  8      3.9730331730     6.8094464760     1.7715554710     0.0000443200    -0.0001942600     0.0006685300
  8     -0.4815085530     6.8094464760     8.4875789830    -0.0000443200    -0.0001942600    -0.0006685300
  8      2.3979522320     4.6654426350     1.6539803680     0.0002627000     0.0003376400    -0.0001069000
  8      1.0935719940     4.6654426350     8.6051540850    -0.0002627000     0.0003376400     0.0001069000
  8     -0.7153592450     2.4682238350     8.6143725420    -0.0003805000     0.0005380000    -0.0002225300
  8      4.2068840270     2.4682238350     1.6447614500     0.0003805000     0.0005380000     0.0002225300
  8     -0.0698387370     4.4547446370     4.0493513310    -0.0004771500     0.0008996600     0.0001581700
  8      3.5613634630     4.4547446370     6.2097829790     0.0004771500     0.0008996600    -0.0001581700
  8      2.6501910030     9.2175755710     4.1182039580     0.0001718500    -0.0004612200    -0.0000927000
  8      0.8413338820     9.2175755710     6.1409303520    -0.0001718500    -0.0004612200     0.0000927000
  1     -0.5361099820     5.3179205370     3.9978553040     0.0003978300    -0.0004523800     0.0000033700
  1      4.0276350150     5.3179205370     6.2612783900    -0.0003978300    -0.0004523800    -0.0000033700
  1      2.6406088230     0.0388912810     3.1538374710     0.0002670600     0.0001268200     0.0000133600
  1      0.8509156880     0.0388912810     7.1052971470    -0.0002670600     0.0001268200    -0.0000133600
 22     -0.9170416550     3.1082002110     5.1295671550     0.0000000000     0.0002762300     0.0000000000
 CONVCOORD
          43           1
 19      0.0000000000     4.5838127140     0.0000000000
 19      2.6628039430     0.0389682010     0.0000000000
 12     -0.9170416550    -0.2176767260     5.1295671550
 12      1.7457622830     4.6722042040     5.1295671550
 12      1.7457622830     7.5931737890     5.1295671550
 12      1.7457622830     1.4819623290     5.1295671550
 14     -0.0029519020     1.5081526840     2.3112480650
 14      3.4944765200     1.5081526840     7.9478863990
 14      3.5691809880     7.6818686620     7.8915679840
 14     -0.0776563650     7.6818686620     2.3675660070
 14      2.5412999790     6.1432468150     2.3178285230
 14      0.9502244560     6.1432468150     7.9413056220
 13      0.7968148920     3.0651474470     7.9550462080
 13      2.6947095190     3.0651474470     2.3040881020
  8     -0.0763824830     1.5768587180     3.9805159850
  8      3.5679069440     1.5768587180     6.2786180170
  8      3.4620671040     7.7015753610     6.2988022710
  8      0.0294575960     7.7015753610     3.9603317310
  8      2.4896324650     6.1058182390     3.9242867220
  8      1.0018921020     6.1058182390     6.3348475780
  8      0.7511988210     3.0386528280     6.1568350820
  8      2.7403259600     3.0386528280     4.1022989200
  8      1.4880646560     1.8883010720     1.8047621770
  8      2.0034597330     1.8883010720     8.4543713640
  8     -0.3176325730     9.2115775090     1.7750675660
  8     -1.5164494520     9.2115775090     8.4840665900
  8      2.1730667300     7.0986673320     8.5809538710
  8      1.3184576810     7.0986673320     1.6781804390
  8      3.9730331730     6.8094464760     1.7715554710
  8     -0.4815085530     6.8094464760     8.4875789830
  8      2.3979522320     4.6654426350     1.6539803680
  8      1.0935719940     4.6654426350     8.6051540850
  8     -0.7153592450     2.4682238350     8.6143725420
  8      4.2068840270     2.4682238350     1.6447614500
  8     -0.0698387370     4.4547446370     4.0493513310
  8      3.5613634630     4.4547446370     6.2097829790
  8      2.6501910030     9.2175755710     4.1182039580
  8      0.8413338820     9.2175755710     6.1409303520
  1     -0.5361099820     5.3179205370     3.9978553040
  1      4.0276350150     5.3179205370     6.2612783900
  1      2.6406088230     0.0388912810     3.1538374710
  1      0.8509156880     0.0388912810     7.1052971470
 22     -0.9170416550     3.1082002110     5.1295671550
 RECIP-PRIMVEC
    0.1877720365   -0.0000000000    0.0335691012

    0.0000000000    0.1081635532   -0.0000000000

    0.0000000000    0.0000000000    0.0974740881

 RECIP-CONVVEC
    0.1877720365   -0.0000000000    0.0335691012

    0.0000000000    0.1081635532   -0.0000000000

    0.0000000000    0.0000000000    0.0974740881

 WIGNER-SEITZ-PRIMCELL
           4
 -0.2662803E+01 -0.4622629E+01 -0.4817469E+01  -0.3221851E+00 -0.9917295E-16 -0.9466767E+00
 -0.2662803E+01  0.4622629E+01 -0.4817469E+01  -0.3221851E+00 -0.9917295E-16 -0.9466767E+00
 -0.8287176E+00  0.4622629E+01 -0.5441668E+01  -0.3221851E+00 -0.9917295E-16 -0.9466767E+00
 -0.8287176E+00 -0.4622629E+01 -0.5441668E+01  -0.3221851E+00 -0.9917295E-16 -0.9466767E+00
           4
 -0.2662803E+01  0.4622629E+01 -0.4817469E+01  -0.1000000E+01 -0.4803427E-16  0.4427948E-32
 -0.2662803E+01 -0.4622629E+01 -0.4817469E+01  -0.1000000E+01 -0.4803427E-16  0.4427948E-32
 -0.2662803E+01 -0.4622629E+01  0.4817469E+01  -0.1000000E+01 -0.4803427E-16  0.4427948E-32
 -0.2662803E+01  0.4622629E+01  0.4817469E+01  -0.1000000E+01 -0.4803427E-16  0.4427948E-32
           6
  0.8287176E+00 -0.4622629E+01  0.5441668E+01   0.2708616E-15 -0.1000000E+01 -0.2112159E-15
 -0.2662803E+01 -0.4622629E+01  0.4817469E+01   0.2708616E-15 -0.1000000E+01 -0.2112159E-15
 -0.2662803E+01 -0.4622629E+01 -0.4817469E+01   0.2708616E-15 -0.1000000E+01 -0.2112159E-15
 -0.8287176E+00 -0.4622629E+01 -0.5441668E+01   0.2708616E-15 -0.1000000E+01 -0.2112159E-15
  0.2662803E+01 -0.4622629E+01 -0.4817469E+01   0.2708616E-15 -0.1000000E+01 -0.2112159E-15
  0.2662803E+01 -0.4622629E+01  0.4817469E+01   0.2708616E-15 -0.1000000E+01 -0.2112159E-15
           4
  0.2662803E+01  0.4622629E+01 -0.4817469E+01   0.1759856E+00  0.1083415E-15 -0.9843927E+00
  0.2662803E+01 -0.4622629E+01 -0.4817469E+01   0.1759856E+00  0.1083415E-15 -0.9843927E+00
 -0.8287176E+00 -0.4622629E+01 -0.5441668E+01   0.1759856E+00  0.1083415E-15 -0.9843927E+00
 -0.8287176E+00  0.4622629E+01 -0.5441668E+01   0.1759856E+00  0.1083415E-15 -0.9843927E+00
           4
 -0.2662803E+01  0.4622629E+01  0.4817469E+01  -0.1759856E+00 -0.1083415E-15  0.9843927E+00
 -0.2662803E+01 -0.4622629E+01  0.4817469E+01  -0.1759856E+00 -0.1083415E-15  0.9843927E+00
  0.8287176E+00 -0.4622629E+01  0.5441668E+01  -0.1759856E+00 -0.1083415E-15  0.9843927E+00
  0.8287176E+00  0.4622629E+01  0.5441668E+01  -0.1759856E+00 -0.1083415E-15  0.9843927E+00
           6
  0.2662803E+01  0.4622629E+01 -0.4817469E+01  -0.1667751E-15  0.1000000E+01  0.1068729E-14
 -0.8287176E+00  0.4622629E+01 -0.5441668E+01  -0.1667751E-15  0.1000000E+01  0.1068729E-14
 -0.2662803E+01  0.4622629E+01 -0.4817469E+01  -0.1667751E-15  0.1000000E+01  0.1068729E-14
 -0.2662803E+01  0.4622629E+01  0.4817469E+01  -0.1667751E-15  0.1000000E+01  0.1068729E-14
  0.8287176E+00  0.4622629E+01  0.5441668E+01  -0.1667751E-15  0.1000000E+01  0.1068729E-14
  0.2662803E+01  0.4622629E+01  0.4817469E+01  -0.1667751E-15  0.1000000E+01  0.1068729E-14
           4
  0.2662803E+01  0.4622629E+01  0.4817469E+01   0.1000000E+01  0.4803427E-16  0.4427948E-32
  0.2662803E+01 -0.4622629E+01  0.4817469E+01   0.1000000E+01  0.4803427E-16  0.4427948E-32
  0.2662803E+01 -0.4622629E+01 -0.4817469E+01   0.1000000E+01  0.4803427E-16  0.4427948E-32
  0.2662803E+01  0.4622629E+01 -0.4817469E+01   0.1000000E+01  0.4803427E-16  0.4427948E-32
           4
  0.8287176E+00 -0.4622629E+01  0.5441668E+01   0.3221851E+00 -0.3574362E-16  0.9466767E+00
  0.2662803E+01 -0.4622629E+01  0.4817469E+01   0.3221851E+00 -0.3574362E-16  0.9466767E+00
  0.2662803E+01  0.4622629E+01  0.4817469E+01   0.3221851E+00 -0.3574362E-16  0.9466767E+00
  0.8287176E+00  0.4622629E+01  0.5441668E+01   0.3221851E+00 -0.3574362E-16  0.9466767E+00
 WIGNER-SEITZ-PRIMCELL_END
 WIGNER-SEITZ-CONVCELL
           4
 -0.2662803E+01 -0.4622629E+01 -0.4817469E+01  -0.3221851E+00 -0.9917295E-16 -0.9466767E+00
 -0.2662803E+01  0.4622629E+01 -0.4817469E+01  -0.3221851E+00 -0.9917295E-16 -0.9466767E+00
 -0.8287176E+00  0.4622629E+01 -0.5441668E+01  -0.3221851E+00 -0.9917295E-16 -0.9466767E+00
 -0.8287176E+00 -0.4622629E+01 -0.5441668E+01  -0.3221851E+00 -0.9917295E-16 -0.9466767E+00
           4
 -0.2662803E+01  0.4622629E+01 -0.4817469E+01  -0.1000000E+01 -0.4803427E-16  0.4427948E-32
 -0.2662803E+01 -0.4622629E+01 -0.4817469E+01  -0.1000000E+01 -0.4803427E-16  0.4427948E-32
 -0.2662803E+01 -0.4622629E+01  0.4817469E+01  -0.1000000E+01 -0.4803427E-16  0.4427948E-32
 -0.2662803E+01  0.4622629E+01  0.4817469E+01  -0.1000000E+01 -0.4803427E-16  0.4427948E-32
           6
  0.8287176E+00 -0.4622629E+01  0.5441668E+01   0.2708616E-15 -0.1000000E+01 -0.2112159E-15
 -0.2662803E+01 -0.4622629E+01  0.4817469E+01   0.2708616E-15 -0.1000000E+01 -0.2112159E-15
 -0.2662803E+01 -0.4622629E+01 -0.4817469E+01   0.2708616E-15 -0.1000000E+01 -0.2112159E-15
 -0.8287176E+00 -0.4622629E+01 -0.5441668E+01   0.2708616E-15 -0.1000000E+01 -0.2112159E-15
  0.2662803E+01 -0.4622629E+01 -0.4817469E+01   0.2708616E-15 -0.1000000E+01 -0.2112159E-15
  0.2662803E+01 -0.4622629E+01  0.4817469E+01   0.2708616E-15 -0.1000000E+01 -0.2112159E-15
           4
  0.2662803E+01  0.4622629E+01 -0.4817469E+01   0.1759856E+00  0.1083415E-15 -0.9843927E+00
  0.2662803E+01 -0.4622629E+01 -0.4817469E+01   0.1759856E+00  0.1083415E-15 -0.9843927E+00
 -0.8287176E+00 -0.4622629E+01 -0.5441668E+01   0.1759856E+00  0.1083415E-15 -0.9843927E+00
 -0.8287176E+00  0.4622629E+01 -0.5441668E+01   0.1759856E+00  0.1083415E-15 -0.9843927E+00
           4
 -0.2662803E+01  0.4622629E+01  0.4817469E+01  -0.1759856E+00 -0.1083415E-15  0.9843927E+00
 -0.2662803E+01 -0.4622629E+01  0.4817469E+01  -0.1759856E+00 -0.1083415E-15  0.9843927E+00
  0.8287176E+00 -0.4622629E+01  0.5441668E+01  -0.1759856E+00 -0.1083415E-15  0.9843927E+00
  0.8287176E+00  0.4622629E+01  0.5441668E+01  -0.1759856E+00 -0.1083415E-15  0.9843927E+00
           6
  0.2662803E+01  0.4622629E+01 -0.4817469E+01  -0.1667751E-15  0.1000000E+01  0.1068729E-14
 -0.8287176E+00  0.4622629E+01 -0.5441668E+01  -0.1667751E-15  0.1000000E+01  0.1068729E-14
 -0.2662803E+01  0.4622629E+01 -0.4817469E+01  -0.1667751E-15  0.1000000E+01  0.1068729E-14
 -0.2662803E+01  0.4622629E+01  0.4817469E+01  -0.1667751E-15  0.1000000E+01  0.1068729E-14
  0.8287176E+00  0.4622629E+01  0.5441668E+01  -0.1667751E-15  0.1000000E+01  0.1068729E-14
  0.2662803E+01  0.4622629E+01  0.4817469E+01  -0.1667751E-15  0.1000000E+01  0.1068729E-14
           4
  0.2662803E+01  0.4622629E+01  0.4817469E+01   0.1000000E+01  0.4803427E-16  0.4427948E-32
  0.2662803E+01 -0.4622629E+01  0.4817469E+01   0.1000000E+01  0.4803427E-16  0.4427948E-32
  0.2662803E+01 -0.4622629E+01 -0.4817469E+01   0.1000000E+01  0.4803427E-16  0.4427948E-32
  0.2662803E+01  0.4622629E+01 -0.4817469E+01   0.1000000E+01  0.4803427E-16  0.4427948E-32
           4
  0.8287176E+00 -0.4622629E+01  0.5441668E+01   0.3221851E+00 -0.3574362E-16  0.9466767E+00
  0.2662803E+01 -0.4622629E+01  0.4817469E+01   0.3221851E+00 -0.3574362E-16  0.9466767E+00
  0.2662803E+01  0.4622629E+01  0.4817469E+01   0.3221851E+00 -0.3574362E-16  0.9466767E+00
  0.8287176E+00  0.4622629E+01  0.5441668E+01   0.3221851E+00 -0.3574362E-16  0.9466767E+00
 WIGNER-SEITZ-CONVCELL_END
 BRILLOUIN-ZONE-PRIMCELL
           4
  0.9959835E-01  0.5408178E-01 -0.1516794E-01   0.9466767E+00  0.0000000E+00 -0.3221851E+00
  0.9959835E-01 -0.5408178E-01 -0.1516794E-01   0.9466767E+00  0.0000000E+00 -0.3221851E+00
  0.8817368E-01 -0.5408178E-01 -0.4873704E-01   0.9466767E+00  0.0000000E+00 -0.3221851E+00
  0.8817368E-01  0.5408178E-01 -0.4873704E-01   0.9466767E+00  0.0000000E+00 -0.3221851E+00
           4
 -0.8817368E-01 -0.5408178E-01 -0.4873704E-01   0.0000000E+00  0.0000000E+00 -0.1000000E+01
 -0.8817368E-01  0.5408178E-01 -0.4873704E-01   0.0000000E+00  0.0000000E+00 -0.1000000E+01
  0.8817368E-01  0.5408178E-01 -0.4873704E-01   0.0000000E+00  0.0000000E+00 -0.1000000E+01
  0.8817368E-01 -0.5408178E-01 -0.4873704E-01   0.0000000E+00  0.0000000E+00 -0.1000000E+01
           6
  0.8817368E-01 -0.5408178E-01  0.4873704E-01   0.0000000E+00 -0.1000000E+01  0.2930364E-15
 -0.8817368E-01 -0.5408178E-01  0.4873704E-01   0.0000000E+00 -0.1000000E+01  0.2930364E-15
 -0.9959835E-01 -0.5408178E-01  0.1516794E-01   0.0000000E+00 -0.1000000E+01  0.2930364E-15
 -0.8817368E-01 -0.5408178E-01 -0.4873704E-01   0.0000000E+00 -0.1000000E+01  0.2930364E-15
  0.8817368E-01 -0.5408178E-01 -0.4873704E-01   0.0000000E+00 -0.1000000E+01  0.2930364E-15
  0.9959835E-01 -0.5408178E-01 -0.1516794E-01   0.0000000E+00 -0.1000000E+01  0.2930364E-15
           4
  0.8817368E-01 -0.5408178E-01  0.4873704E-01   0.9843927E+00 -0.1158042E-16  0.1759856E+00
  0.9959835E-01 -0.5408178E-01 -0.1516794E-01   0.9843927E+00 -0.1158042E-16  0.1759856E+00
  0.9959835E-01  0.5408178E-01 -0.1516794E-01   0.9843927E+00 -0.1158042E-16  0.1759856E+00
  0.8817368E-01  0.5408178E-01  0.4873704E-01   0.9843927E+00 -0.1158042E-16  0.1759856E+00
           4
 -0.9959835E-01  0.5408178E-01  0.1516794E-01  -0.9843927E+00  0.1989206E-15 -0.1759856E+00
 -0.8817368E-01  0.5408178E-01 -0.4873704E-01  -0.9843927E+00  0.1989206E-15 -0.1759856E+00
 -0.8817368E-01 -0.5408178E-01 -0.4873704E-01  -0.9843927E+00  0.1989206E-15 -0.1759856E+00
 -0.9959835E-01 -0.5408178E-01  0.1516794E-01  -0.9843927E+00  0.1989206E-15 -0.1759856E+00
           6
  0.9959835E-01  0.5408178E-01 -0.1516794E-01  -0.0000000E+00  0.1000000E+01  0.2930364E-15
  0.8817368E-01  0.5408178E-01 -0.4873704E-01  -0.0000000E+00  0.1000000E+01  0.2930364E-15
 -0.8817368E-01  0.5408178E-01 -0.4873704E-01  -0.0000000E+00  0.1000000E+01  0.2930364E-15
 -0.9959835E-01  0.5408178E-01  0.1516794E-01  -0.0000000E+00  0.1000000E+01  0.2930364E-15
 -0.8817368E-01  0.5408178E-01  0.4873704E-01  -0.0000000E+00  0.1000000E+01  0.2930364E-15
  0.8817368E-01  0.5408178E-01  0.4873704E-01  -0.0000000E+00  0.1000000E+01  0.2930364E-15
           4
  0.8817368E-01 -0.5408178E-01  0.4873704E-01  -0.0000000E+00 -0.0000000E+00  0.1000000E+01
  0.8817368E-01  0.5408178E-01  0.4873704E-01  -0.0000000E+00 -0.0000000E+00  0.1000000E+01
 -0.8817368E-01  0.5408178E-01  0.4873704E-01  -0.0000000E+00 -0.0000000E+00  0.1000000E+01
 -0.8817368E-01 -0.5408178E-01  0.4873704E-01  -0.0000000E+00 -0.0000000E+00  0.1000000E+01
           4
 -0.8817368E-01  0.5408178E-01  0.4873704E-01  -0.9466767E+00 -0.1268753E-15  0.3221851E+00
 -0.9959835E-01  0.5408178E-01  0.1516794E-01  -0.9466767E+00 -0.1268753E-15  0.3221851E+00
 -0.9959835E-01 -0.5408178E-01  0.1516794E-01  -0.9466767E+00 -0.1268753E-15  0.3221851E+00
 -0.8817368E-01 -0.5408178E-01  0.4873704E-01  -0.9466767E+00 -0.1268753E-15  0.3221851E+00
 BRILLOUIN-ZONE-PRIMCELL_END
 BRILLOUIN-ZONE-CONVCELL
           4
  0.9959835E-01  0.5408178E-01 -0.1516794E-01   0.9466767E+00  0.0000000E+00 -0.3221851E+00
  0.9959835E-01 -0.5408178E-01 -0.1516794E-01   0.9466767E+00  0.0000000E+00 -0.3221851E+00
  0.8817368E-01 -0.5408178E-01 -0.4873704E-01   0.9466767E+00  0.0000000E+00 -0.3221851E+00
  0.8817368E-01  0.5408178E-01 -0.4873704E-01   0.9466767E+00  0.0000000E+00 -0.3221851E+00
           4
 -0.8817368E-01 -0.5408178E-01 -0.4873704E-01   0.0000000E+00  0.0000000E+00 -0.1000000E+01
 -0.8817368E-01  0.5408178E-01 -0.4873704E-01   0.0000000E+00  0.0000000E+00 -0.1000000E+01
  0.8817368E-01  0.5408178E-01 -0.4873704E-01   0.0000000E+00  0.0000000E+00 -0.1000000E+01
  0.8817368E-01 -0.5408178E-01 -0.4873704E-01   0.0000000E+00  0.0000000E+00 -0.1000000E+01
           6
  0.8817368E-01 -0.5408178E-01  0.4873704E-01   0.0000000E+00 -0.1000000E+01  0.2930364E-15
 -0.8817368E-01 -0.5408178E-01  0.4873704E-01   0.0000000E+00 -0.1000000E+01  0.2930364E-15
 -0.9959835E-01 -0.5408178E-01  0.1516794E-01   0.0000000E+00 -0.1000000E+01  0.2930364E-15
 -0.8817368E-01 -0.5408178E-01 -0.4873704E-01   0.0000000E+00 -0.1000000E+01  0.2930364E-15
  0.8817368E-01 -0.5408178E-01 -0.4873704E-01   0.0000000E+00 -0.1000000E+01  0.2930364E-15
  0.9959835E-01 -0.5408178E-01 -0.1516794E-01   0.0000000E+00 -0.1000000E+01  0.2930364E-15
           4
  0.8817368E-01 -0.5408178E-01  0.4873704E-01   0.9843927E+00 -0.1158042E-16  0.1759856E+00
  0.9959835E-01 -0.5408178E-01 -0.1516794E-01   0.9843927E+00 -0.1158042E-16  0.1759856E+00
  0.9959835E-01  0.5408178E-01 -0.1516794E-01   0.9843927E+00 -0.1158042E-16  0.1759856E+00
  0.8817368E-01  0.5408178E-01  0.4873704E-01   0.9843927E+00 -0.1158042E-16  0.1759856E+00
           4
 -0.9959835E-01  0.5408178E-01  0.1516794E-01  -0.9843927E+00  0.1989206E-15 -0.1759856E+00
 -0.8817368E-01  0.5408178E-01 -0.4873704E-01  -0.9843927E+00  0.1989206E-15 -0.1759856E+00
 -0.8817368E-01 -0.5408178E-01 -0.4873704E-01  -0.9843927E+00  0.1989206E-15 -0.1759856E+00
 -0.9959835E-01 -0.5408178E-01  0.1516794E-01  -0.9843927E+00  0.1989206E-15 -0.1759856E+00
           6
  0.9959835E-01  0.5408178E-01 -0.1516794E-01  -0.0000000E+00  0.1000000E+01  0.2930364E-15
  0.8817368E-01  0.5408178E-01 -0.4873704E-01  -0.0000000E+00  0.1000000E+01  0.2930364E-15
 -0.8817368E-01  0.5408178E-01 -0.4873704E-01  -0.0000000E+00  0.1000000E+01  0.2930364E-15
 -0.9959835E-01  0.5408178E-01  0.1516794E-01  -0.0000000E+00  0.1000000E+01  0.2930364E-15
 -0.8817368E-01  0.5408178E-01  0.4873704E-01  -0.0000000E+00  0.1000000E+01  0.2930364E-15
  0.8817368E-01  0.5408178E-01  0.4873704E-01  -0.0000000E+00  0.1000000E+01  0.2930364E-15
           4
  0.8817368E-01 -0.5408178E-01  0.4873704E-01  -0.0000000E+00 -0.0000000E+00  0.1000000E+01
  0.8817368E-01  0.5408178E-01  0.4873704E-01  -0.0000000E+00 -0.0000000E+00  0.1000000E+01
 -0.8817368E-01  0.5408178E-01  0.4873704E-01  -0.0000000E+00 -0.0000000E+00  0.1000000E+01
 -0.8817368E-01 -0.5408178E-01  0.4873704E-01  -0.0000000E+00 -0.0000000E+00  0.1000000E+01
           4
 -0.8817368E-01  0.5408178E-01  0.4873704E-01  -0.9466767E+00 -0.1268753E-15  0.3221851E+00
 -0.9959835E-01  0.5408178E-01  0.1516794E-01  -0.9466767E+00 -0.1268753E-15  0.3221851E+00
 -0.9959835E-01 -0.5408178E-01  0.1516794E-01  -0.9466767E+00 -0.1268753E-15  0.3221851E+00
 -0.8817368E-01 -0.5408178E-01  0.4873704E-01  -0.9466767E+00 -0.1268753E-15  0.3221851E+00
 BRILLOUIN-ZONE-CONVCELL_END
 ATOMS
   19    0.0000000000    4.5838127140    0.0000000000    0.0000000000    0.0005484200    0.0000000000
   19    2.6628039430    0.0389682010    0.0000000000    0.0000000000   -0.0008708600    0.0000000000
   12    1.7457622830    4.6722042040    5.1295671550    0.0000000000   -0.0009783400    0.0000000000
   12    1.7457622830    7.5931737890    5.1295671550    0.0000000000   -0.0009065000    0.0000000000
   12    1.7457622830    1.4819623290    5.1295671550    0.0000000000    0.0004154900    0.0000000000
   14   -0.0029519020    1.5081526840    2.3112480650    0.0003936400   -0.0001904500    0.0001662800
   14    3.4944765200    1.5081526840    7.9478863990   -0.0003936400   -0.0001904500   -0.0001662800
   14    3.5691809880    7.6818686620    7.8915679840    0.0000446000   -0.0001076300   -0.0002508200
   14   -0.0776563650    7.6818686620    2.3675660070   -0.0000446000   -0.0001076300    0.0002508200
   14    2.5412999790    6.1432468150    2.3178285230   -0.0001302800    0.0001996100    0.0002083700
   14    0.9502244560    6.1432468150    7.9413056220    0.0001302800    0.0001996100   -0.0002083700
   13    0.7968148920    3.0651474470    7.9550462080   -0.0000686400    0.0002458200    0.0000794600
   13    2.6947095190    3.0651474470    2.3040881020    0.0000686400    0.0002458200   -0.0000794600
    8   -0.0763824830    1.5768587180    3.9805159850    0.0001048800    0.0008178300    0.0002149000
    8    3.5679069440    1.5768587180    6.2786180170   -0.0001048800    0.0008178300   -0.0002149000
    8    3.4620671040    7.7015753610    6.2988022710   -0.0001713100    0.0000912200   -0.0000269600
    8    0.0294575960    7.7015753610    3.9603317310    0.0001713100    0.0000912200    0.0000269600
    8    2.4896324650    6.1058182390    3.9242867220   -0.0000729700   -0.0004806200   -0.0000436000
    8    1.0018921020    6.1058182390    6.3348475780    0.0000729700   -0.0004806200    0.0000436000
    8    0.7511988210    3.0386528280    6.1568350820   -0.0000683800   -0.0003653100   -0.0002014300
    8    2.7403259600    3.0386528280    4.1022989200    0.0000683800   -0.0003653100    0.0002014300
    8    1.4880646560    1.8883010720    1.8047621770    0.0001405900   -0.0002921000   -0.0000094500
    8    2.0034597330    1.8883010720    8.4543713640   -0.0001405900   -0.0002921000    0.0000094500
    8   -1.5164494520    9.2115775090    8.4840665900   -0.0002527500   -0.0001313900    0.0000509000
    8    2.1730667300    7.0986673320    8.5809538710    0.0000176200    0.0001963200   -0.0001060600
    8    1.3184576810    7.0986673320    1.6781804390   -0.0000176200    0.0001963200    0.0001060600
    8    3.9730331730    6.8094464760    1.7715554710    0.0000443200   -0.0001942600    0.0006685300
    8   -0.4815085530    6.8094464760    8.4875789830   -0.0000443200   -0.0001942600   -0.0006685300
    8    2.3979522320    4.6654426350    1.6539803680    0.0002627000    0.0003376400   -0.0001069000
    8    1.0935719940    4.6654426350    8.6051540850   -0.0002627000    0.0003376400    0.0001069000
    8   -0.7153592450    2.4682238350    8.6143725420   -0.0003805000    0.0005380000   -0.0002225300
    8    4.2068840270    2.4682238350    1.6447614500    0.0003805000    0.0005380000    0.0002225300
    8   -0.0698387370    4.4547446370    4.0493513310   -0.0004771500    0.0008996600    0.0001581700
    8    3.5613634630    4.4547446370    6.2097829790    0.0004771500    0.0008996600   -0.0001581700
    8    2.6501910030    9.2175755710    4.1182039580    0.0001718500   -0.0004612200   -0.0000927000
    8    0.8413338820    9.2175755710    6.1409303520   -0.0001718500   -0.0004612200    0.0000927000
    1   -0.5361099820    5.3179205370    3.9978553040    0.0003978300   -0.0004523800    0.0000033700
    1    4.0276350150    5.3179205370    6.2612783900   -0.0003978300   -0.0004523800   -0.0000033700
    1    2.6406088230    0.0388912810    3.1538374710    0.0002670600    0.0001268200    0.0000133600
    1    0.8509156880    0.0388912810    7.1052971470   -0.0002670600    0.0001268200   -0.0000133600
   22   -0.9170416550    3.1082002110    5.1295671550    0.0000000000    0.0002762300    0.0000000000
   19   -1.8340856630    4.5838127140   10.2591367520    0.0000000000    0.0005484200    0.0000000000
   19    0.8287182800    0.0389682010   10.2591367520    0.0000000000   -0.0008708600    0.0000000000
   12   -0.9170416550    9.0275816890    5.1295671550    0.0000000000   -0.0000395600    0.0000000000
   19    5.3256066180    4.5838127140    0.0000000000    0.0000000000    0.0005484200    0.0000000000
    8    5.0079740450    9.2115775090    1.7750675660    0.0002527500   -0.0001313900   -0.0000509000
   22    4.4085649630    3.1082002110    5.1295671550    0.0000000000    0.0002762300    0.0000000000
   19    3.4915209550    4.5838127140   10.2591367520    0.0000000000    0.0005484200    0.0000000000
   12    4.4085649630    9.0275816890    5.1295671550    0.0000000000   -0.0000395600    0.0000000000
 FRAMES
1      0.0000000000    0.0000000000    0.0000000000      5.3256066180    0.0000000000    0.0000000000
1      0.0000000000    0.0000000000    0.0000000000      0.0000000000    9.2452584150    0.0000000000
1      0.0000000000    0.0000000000    0.0000000000     -1.8340856630    0.0000000000   10.2591367520
1     -1.8340856630    0.0000000000   10.2591367520      3.4915209550    0.0000000000   10.2591367520
1     -1.8340856630    0.0000000000   10.2591367520     -1.8340856630    9.2452584150   10.2591367520
1      0.0000000000    9.2452584150    0.0000000000      5.3256066180    9.2452584150    0.0000000000
1      0.0000000000    9.2452584150    0.0000000000     -1.8340856630    9.2452584150   10.2591367520
1     -1.8340856630    9.2452584150   10.2591367520      3.4915209550    9.2452584150   10.2591367520
1      5.3256066180    0.0000000000    0.0000000000      5.3256066180    9.2452584150    0.0000000000
1      5.3256066180    0.0000000000    0.0000000000      3.4915209550    0.0000000000   10.2591367520
1      3.4915209550    0.0000000000   10.2591367520      3.4915209550    9.2452584150   10.2591367520
1      5.3256066180    9.2452584150    0.0000000000      3.4915209550    9.2452584150   10.2591367520
