 INFO
nunit      1    1    1
unit   cell
celltype   primcell
shape   parapipedal
 END_INFO
 DIM-GROUP
           3           1
 PRIMVEC
    5.2989900630    0.0000000000    0.0000000000
    0.0000000000    9.1953692500    0.0000000000
   -1.8126838200    0.0000000000   10.0463340640
 CONVVEC
    5.2989900630    0.0000000000    0.0000000000
    0.0000000000    9.1953692500    0.0000000000
   -1.8126838200    0.0000000000   10.0463340640
 PRIMCOORD
          44           1
 19      0.0000000000     4.5887359360     0.0000000000     0.0000000000     0.0005631000     0.0000000000
 19      2.6494950310    -0.0426638090     0.0000000000     0.0000000000     0.0003067500     0.0000000000
 12     -0.9063419100     0.0595932380     5.0231670320     0.0000000000    -0.0002372200     0.0000000000
 12     -0.9063419100     6.1306454860     5.0231670320     0.0000000000     0.0005156900     0.0000000000
 12      1.7431531220     4.5622952110     5.0231670320     0.0000000000    -0.0000020900     0.0000000000
 12      1.7431531220     7.6862814160     5.0231670320     0.0000000000     0.0000280400     0.0000000000
 12      1.7431531220     1.5699126300     5.0231670320     0.0000000000    -0.0007329600     0.0000000000
 14      0.0926517990     1.5050609850     2.2143187700     0.0001185500    -0.0000239700     0.0000890900
 14      3.3936543150     1.5050609850     7.8320155960    -0.0001185500    -0.0000239700    -0.0000890900
 14      3.5513485650     7.6748060740     7.7512616030    -0.0001207900    -0.0000244700    -0.0000201500
 14     -0.0650423220     7.6748060740     2.2950724610     0.0001207900    -0.0000244700     0.0000201500
 14      2.5842189680     6.1262535020     2.2806370780     0.0001897000     0.0001208100    -0.0000642900
 14      0.9020873030     6.1262535020     7.7656968360    -0.0001897000     0.0001208100     0.0000642900
 13      0.7426310080     3.0369493180     7.8071743130     0.0000238700     0.0002748400    -0.0004962000
 13      2.7436752350     3.0369493180     2.2391597520    -0.0000238700     0.0002748400     0.0004962000
  8      0.0338893340     1.4524627370     3.8410088250    -0.0001928300     0.0004965400    -0.0001307500
  8      3.4524166980     1.4524627370     6.2053255310     0.0001928300     0.0004965400     0.0001307500
  8      3.5243348730     7.6772559070     6.1347140040     0.0006826800    -0.0001175600    -0.0003009300
  8     -0.0380286290     7.6772559070     3.9116200610    -0.0006826800    -0.0001175600     0.0003009300
  8      2.6196569640     6.1580180230     3.9051061960     0.0002302700    -0.0003102100     0.0000511600
  8      0.8666492800     6.1580180230     6.1412278680    -0.0002302700    -0.0003102100    -0.0000511600
  8      0.8126542210     3.0687131180     6.0638701570    -0.0000992700    -0.0006666000    -0.0004808900
  8      2.6736520220     3.0687131180     3.9824639080     0.0000992700    -0.0006666000     0.0004808900
  8      1.5828999290     1.8418702910     1.6481161700     0.0002954200    -0.0001029800    -0.0002335300
  8      1.9034063690     1.8418702910     8.3982175930    -0.0002954200    -0.0001029800     0.0002335300
  8      5.0043687450     9.1683157260     1.6474405320     0.0000161400    -0.0000584000    -0.0001365800
  8     -1.5180624750     9.1683157260     8.3988933820    -0.0000161400    -0.0000584000     0.0001365800
  8      2.1193783050     7.1041843080     8.3514746660     0.0002338800    -0.0005791400     0.0004443100
  8      1.3669279380     7.1041843080     1.6948593980    -0.0002338800    -0.0005791400    -0.0004443100
  8      4.0078632150     6.7523510840     1.6810731020    -0.0000941300     0.0003250900    -0.0002595200
  8     -0.5215569710     6.7523510840     8.3652609620     0.0000941300     0.0003250900     0.0002595200
  8      2.3717746070     4.6610436830     1.6290995350    -0.0003290700     0.0000596000    -0.0004386400
  8      1.1145314500     4.6610436830     8.4172346800     0.0003290700     0.0000596000     0.0004386400
  8     -0.8354613260     2.5674157800     8.4424509430     0.0001706000     0.0001517900    -0.0002617900
  8      4.3217676480     2.5674157800     1.6038831210    -0.0001706000     0.0001517900     0.0002617900
  8      0.0176452120     4.7077612730     3.9211021210    -0.0000482100    -0.0004618400    -0.0001975800
  8      3.4686611110     4.7077612730     6.1252319430     0.0000482100    -0.0004618400     0.0001975800
  8      2.6422306630     9.1901172550     3.9841341270     0.0001463600     0.0003707700    -0.0000212400
  8      0.8440756350     9.1901172550     6.0621996360    -0.0001463600     0.0003707700     0.0000212400
  1      0.0312878750     4.4907577020     2.9802271150    -0.0004854000     0.0000243900    -0.0005199700
  1      3.4550185270     4.4907577020     7.0661069500     0.0004854000     0.0000243900     0.0005199700
  1      2.5956016320     0.1436454150     3.0305573990     0.0000513300     0.0003886100    -0.0001622600
  1      0.8907046120     0.1436454150     7.0157766660    -0.0000513300     0.0003886100     0.0001622600
 26     -0.9063419100     3.0893135480     5.0231670320     0.0000000000    -0.0001758700     0.0000000000
 CONVCOORD
          44           1
 19      0.0000000000     4.5887359360     0.0000000000
 19      2.6494950310    -0.0426638090     0.0000000000
 12     -0.9063419100     0.0595932380     5.0231670320
 12     -0.9063419100     6.1306454860     5.0231670320
 12      1.7431531220     4.5622952110     5.0231670320
 12      1.7431531220     7.6862814160     5.0231670320
 12      1.7431531220     1.5699126300     5.0231670320
 14      0.0926517990     1.5050609850     2.2143187700
 14      3.3936543150     1.5050609850     7.8320155960
 14      3.5513485650     7.6748060740     7.7512616030
 14     -0.0650423220     7.6748060740     2.2950724610
 14      2.5842189680     6.1262535020     2.2806370780
 14      0.9020873030     6.1262535020     7.7656968360
 13      0.7426310080     3.0369493180     7.8071743130
 13      2.7436752350     3.0369493180     2.2391597520
  8      0.0338893340     1.4524627370     3.8410088250
  8      3.4524166980     1.4524627370     6.2053255310
  8      3.5243348730     7.6772559070     6.1347140040
  8     -0.0380286290     7.6772559070     3.9116200610
  8      2.6196569640     6.1580180230     3.9051061960
  8      0.8666492800     6.1580180230     6.1412278680
  8      0.8126542210     3.0687131180     6.0638701570
  8      2.6736520220     3.0687131180     3.9824639080
  8      1.5828999290     1.8418702910     1.6481161700
  8      1.9034063690     1.8418702910     8.3982175930
  8     -0.2946213180     9.1683157260     1.6474405320
  8     -1.5180624750     9.1683157260     8.3988933820
  8      2.1193783050     7.1041843080     8.3514746660
  8      1.3669279380     7.1041843080     1.6948593980
  8      4.0078632150     6.7523510840     1.6810731020
  8     -0.5215569710     6.7523510840     8.3652609620
  8      2.3717746070     4.6610436830     1.6290995350
  8      1.1145314500     4.6610436830     8.4172346800
  8     -0.8354613260     2.5674157800     8.4424509430
  8      4.3217676480     2.5674157800     1.6038831210
  8      0.0176452120     4.7077612730     3.9211021210
  8      3.4686611110     4.7077612730     6.1252319430
  8      2.6422306630     9.1901172550     3.9841341270
  8      0.8440756350     9.1901172550     6.0621996360
  1      0.0312878750     4.4907577020     2.9802271150
  1      3.4550185270     4.4907577020     7.0661069500
  1      2.5956016320     0.1436454150     3.0305573990
  1      0.8907046120     0.1436454150     7.0157766660
 26     -0.9063419100     3.0893135480     5.0231670320
 RECIP-PRIMVEC
    0.1887152057   -0.0000000000    0.0340503310

    0.0000000000    0.1087503909   -0.0000000000

    0.0000000000    0.0000000000    0.0995387963

 RECIP-CONVVEC
    0.1887152057   -0.0000000000    0.0340503310

    0.0000000000    0.1087503909   -0.0000000000

    0.0000000000    0.0000000000    0.0995387963

 WIGNER-SEITZ-PRIMCELL
           4
 -0.2649495E+01  0.4597685E+01 -0.4708646E+01  -0.3278435E+00 -0.1009766E-15 -0.9447320E+00
 -0.8368112E+00  0.4597685E+01 -0.5337688E+01  -0.3278435E+00 -0.1009766E-15 -0.9447320E+00
 -0.8368112E+00 -0.4597685E+01 -0.5337688E+01  -0.3278435E+00 -0.1009766E-15 -0.9447320E+00
 -0.2649495E+01 -0.4597685E+01 -0.4708646E+01  -0.3278435E+00 -0.1009766E-15 -0.9447320E+00
           4
 -0.2649495E+01  0.4597685E+01 -0.4708646E+01  -0.1000000E+01  0.4829488E-16  0.4554862E-32
 -0.2649495E+01 -0.4597685E+01 -0.4708646E+01  -0.1000000E+01  0.4829488E-16  0.4554862E-32
 -0.2649495E+01 -0.4597685E+01  0.4708646E+01  -0.1000000E+01  0.4829488E-16  0.4554862E-32
 -0.2649495E+01  0.4597685E+01  0.4708646E+01  -0.1000000E+01  0.4829488E-16  0.4554862E-32
           6
  0.2649495E+01 -0.4597685E+01  0.4708646E+01  -0.0000000E+00 -0.1000000E+01  0.1065828E-14
  0.8368112E+00 -0.4597685E+01  0.5337688E+01  -0.0000000E+00 -0.1000000E+01  0.1065828E-14
 -0.2649495E+01 -0.4597685E+01  0.4708646E+01  -0.0000000E+00 -0.1000000E+01  0.1065828E-14
 -0.2649495E+01 -0.4597685E+01 -0.4708646E+01  -0.0000000E+00 -0.1000000E+01  0.1065828E-14
 -0.8368112E+00 -0.4597685E+01 -0.5337688E+01  -0.0000000E+00 -0.1000000E+01  0.1065828E-14
  0.2649495E+01 -0.4597685E+01 -0.4708646E+01  -0.0000000E+00 -0.1000000E+01  0.1065828E-14
           4
  0.2649495E+01 -0.4597685E+01 -0.4708646E+01   0.1775651E+00 -0.2181216E-15 -0.9841091E+00
 -0.8368112E+00 -0.4597685E+01 -0.5337688E+01   0.1775651E+00 -0.2181216E-15 -0.9841091E+00
 -0.8368112E+00  0.4597685E+01 -0.5337688E+01   0.1775651E+00 -0.2181216E-15 -0.9841091E+00
  0.2649495E+01  0.4597685E+01 -0.4708646E+01   0.1775651E+00 -0.2181216E-15 -0.9841091E+00
           4
 -0.2649495E+01  0.4597685E+01  0.4708646E+01  -0.1775651E+00 -0.0000000E+00  0.9841091E+00
 -0.2649495E+01 -0.4597685E+01  0.4708646E+01  -0.1775651E+00 -0.0000000E+00  0.9841091E+00
  0.8368112E+00 -0.4597685E+01  0.5337688E+01  -0.1775651E+00 -0.0000000E+00  0.9841091E+00
  0.8368112E+00  0.4597685E+01  0.5337688E+01  -0.1775651E+00 -0.0000000E+00  0.9841091E+00
           6
  0.2649495E+01  0.4597685E+01 -0.4708646E+01   0.0000000E+00  0.1000000E+01  0.1065828E-14
 -0.8368112E+00  0.4597685E+01 -0.5337688E+01   0.0000000E+00  0.1000000E+01  0.1065828E-14
 -0.2649495E+01  0.4597685E+01 -0.4708646E+01   0.0000000E+00  0.1000000E+01  0.1065828E-14
 -0.2649495E+01  0.4597685E+01  0.4708646E+01   0.0000000E+00  0.1000000E+01  0.1065828E-14
  0.8368112E+00  0.4597685E+01  0.5337688E+01   0.0000000E+00  0.1000000E+01  0.1065828E-14
  0.2649495E+01  0.4597685E+01  0.4708646E+01   0.0000000E+00  0.1000000E+01  0.1065828E-14
           4
  0.2649495E+01  0.4597685E+01  0.4708646E+01   0.1000000E+01 -0.4829488E-16  0.0000000E+00
  0.2649495E+01 -0.4597685E+01  0.4708646E+01   0.1000000E+01 -0.4829488E-16  0.0000000E+00
  0.2649495E+01 -0.4597685E+01 -0.4708646E+01   0.1000000E+01 -0.4829488E-16  0.0000000E+00
  0.2649495E+01  0.4597685E+01 -0.4708646E+01   0.1000000E+01 -0.4829488E-16  0.0000000E+00
           4
  0.8368112E+00 -0.4597685E+01  0.5337688E+01   0.3278435E+00  0.3334111E-16  0.9447320E+00
  0.2649495E+01 -0.4597685E+01  0.4708646E+01   0.3278435E+00  0.3334111E-16  0.9447320E+00
  0.2649495E+01  0.4597685E+01  0.4708646E+01   0.3278435E+00  0.3334111E-16  0.9447320E+00
  0.8368112E+00  0.4597685E+01  0.5337688E+01   0.3278435E+00  0.3334111E-16  0.9447320E+00
 WIGNER-SEITZ-PRIMCELL_END
 WIGNER-SEITZ-CONVCELL
           4
 -0.2649495E+01  0.4597685E+01 -0.4708646E+01  -0.3278435E+00 -0.1009766E-15 -0.9447320E+00
 -0.8368112E+00  0.4597685E+01 -0.5337688E+01  -0.3278435E+00 -0.1009766E-15 -0.9447320E+00
 -0.8368112E+00 -0.4597685E+01 -0.5337688E+01  -0.3278435E+00 -0.1009766E-15 -0.9447320E+00
 -0.2649495E+01 -0.4597685E+01 -0.4708646E+01  -0.3278435E+00 -0.1009766E-15 -0.9447320E+00
           4
 -0.2649495E+01  0.4597685E+01 -0.4708646E+01  -0.1000000E+01  0.4829488E-16  0.4554862E-32
 -0.2649495E+01 -0.4597685E+01 -0.4708646E+01  -0.1000000E+01  0.4829488E-16  0.4554862E-32
 -0.2649495E+01 -0.4597685E+01  0.4708646E+01  -0.1000000E+01  0.4829488E-16  0.4554862E-32
 -0.2649495E+01  0.4597685E+01  0.4708646E+01  -0.1000000E+01  0.4829488E-16  0.4554862E-32
           6
  0.2649495E+01 -0.4597685E+01  0.4708646E+01  -0.0000000E+00 -0.1000000E+01  0.1065828E-14
  0.8368112E+00 -0.4597685E+01  0.5337688E+01  -0.0000000E+00 -0.1000000E+01  0.1065828E-14
 -0.2649495E+01 -0.4597685E+01  0.4708646E+01  -0.0000000E+00 -0.1000000E+01  0.1065828E-14
 -0.2649495E+01 -0.4597685E+01 -0.4708646E+01  -0.0000000E+00 -0.1000000E+01  0.1065828E-14
 -0.8368112E+00 -0.4597685E+01 -0.5337688E+01  -0.0000000E+00 -0.1000000E+01  0.1065828E-14
  0.2649495E+01 -0.4597685E+01 -0.4708646E+01  -0.0000000E+00 -0.1000000E+01  0.1065828E-14
           4
  0.2649495E+01 -0.4597685E+01 -0.4708646E+01   0.1775651E+00 -0.2181216E-15 -0.9841091E+00
 -0.8368112E+00 -0.4597685E+01 -0.5337688E+01   0.1775651E+00 -0.2181216E-15 -0.9841091E+00
 -0.8368112E+00  0.4597685E+01 -0.5337688E+01   0.1775651E+00 -0.2181216E-15 -0.9841091E+00
  0.2649495E+01  0.4597685E+01 -0.4708646E+01   0.1775651E+00 -0.2181216E-15 -0.9841091E+00
           4
 -0.2649495E+01  0.4597685E+01  0.4708646E+01  -0.1775651E+00 -0.0000000E+00  0.9841091E+00
 -0.2649495E+01 -0.4597685E+01  0.4708646E+01  -0.1775651E+00 -0.0000000E+00  0.9841091E+00
  0.8368112E+00 -0.4597685E+01  0.5337688E+01  -0.1775651E+00 -0.0000000E+00  0.9841091E+00
  0.8368112E+00  0.4597685E+01  0.5337688E+01  -0.1775651E+00 -0.0000000E+00  0.9841091E+00
           6
  0.2649495E+01  0.4597685E+01 -0.4708646E+01   0.0000000E+00  0.1000000E+01  0.1065828E-14
 -0.8368112E+00  0.4597685E+01 -0.5337688E+01   0.0000000E+00  0.1000000E+01  0.1065828E-14
 -0.2649495E+01  0.4597685E+01 -0.4708646E+01   0.0000000E+00  0.1000000E+01  0.1065828E-14
 -0.2649495E+01  0.4597685E+01  0.4708646E+01   0.0000000E+00  0.1000000E+01  0.1065828E-14
  0.8368112E+00  0.4597685E+01  0.5337688E+01   0.0000000E+00  0.1000000E+01  0.1065828E-14
  0.2649495E+01  0.4597685E+01  0.4708646E+01   0.0000000E+00  0.1000000E+01  0.1065828E-14
           4
  0.2649495E+01  0.4597685E+01  0.4708646E+01   0.1000000E+01 -0.4829488E-16  0.0000000E+00
  0.2649495E+01 -0.4597685E+01  0.4708646E+01   0.1000000E+01 -0.4829488E-16  0.0000000E+00
  0.2649495E+01 -0.4597685E+01 -0.4708646E+01   0.1000000E+01 -0.4829488E-16  0.0000000E+00
  0.2649495E+01  0.4597685E+01 -0.4708646E+01   0.1000000E+01 -0.4829488E-16  0.0000000E+00
           4
  0.8368112E+00 -0.4597685E+01  0.5337688E+01   0.3278435E+00  0.3334111E-16  0.9447320E+00
  0.2649495E+01 -0.4597685E+01  0.4708646E+01   0.3278435E+00  0.3334111E-16  0.9447320E+00
  0.2649495E+01  0.4597685E+01  0.4708646E+01   0.3278435E+00  0.3334111E-16  0.9447320E+00
  0.8368112E+00  0.4597685E+01  0.5337688E+01   0.3278435E+00  0.3334111E-16  0.9447320E+00
 WIGNER-SEITZ-CONVCELL_END
 BRILLOUIN-ZONE-PRIMCELL
           4
  0.1002657E+00  0.5437520E-01 -0.1571907E-01   0.9447320E+00  0.5532186E-16 -0.3278435E+00
  0.1002657E+00 -0.5437520E-01 -0.1571907E-01   0.9447320E+00  0.5532186E-16 -0.3278435E+00
  0.8844948E-01 -0.5437520E-01 -0.4976940E-01   0.9447320E+00  0.5532186E-16 -0.3278435E+00
  0.8844948E-01  0.5437520E-01 -0.4976940E-01   0.9447320E+00  0.5532186E-16 -0.3278435E+00
           4
 -0.8844948E-01  0.5437520E-01 -0.4976940E-01   0.0000000E+00 -0.5426985E-16 -0.1000000E+01
  0.8844948E-01  0.5437520E-01 -0.4976940E-01   0.0000000E+00 -0.5426985E-16 -0.1000000E+01
  0.8844948E-01 -0.5437520E-01 -0.4976940E-01   0.0000000E+00 -0.5426985E-16 -0.1000000E+01
 -0.8844948E-01 -0.5437520E-01 -0.4976940E-01   0.0000000E+00 -0.5426985E-16 -0.1000000E+01
           6
  0.8844948E-01 -0.5437520E-01  0.4976940E-01   0.0000000E+00 -0.1000000E+01  0.2879941E-15
 -0.8844948E-01 -0.5437520E-01  0.4976940E-01   0.0000000E+00 -0.1000000E+01  0.2879941E-15
 -0.1002657E+00 -0.5437520E-01  0.1571907E-01   0.0000000E+00 -0.1000000E+01  0.2879941E-15
 -0.8844948E-01 -0.5437520E-01 -0.4976940E-01   0.0000000E+00 -0.1000000E+01  0.2879941E-15
  0.8844948E-01 -0.5437520E-01 -0.4976940E-01   0.0000000E+00 -0.1000000E+01  0.2879941E-15
  0.1002657E+00 -0.5437520E-01 -0.1571907E-01   0.0000000E+00 -0.1000000E+01  0.2879941E-15
           4
  0.8844948E-01  0.5437520E-01  0.4976940E-01   0.9841091E+00 -0.3370857E-15  0.1775651E+00
  0.8844948E-01 -0.5437520E-01  0.4976940E-01   0.9841091E+00 -0.3370857E-15  0.1775651E+00
  0.1002657E+00 -0.5437520E-01 -0.1571907E-01   0.9841091E+00 -0.3370857E-15  0.1775651E+00
  0.1002657E+00  0.5437520E-01 -0.1571907E-01   0.9841091E+00 -0.3370857E-15  0.1775651E+00
           4
 -0.8844948E-01  0.5437520E-01 -0.4976940E-01  -0.9841091E+00 -0.1498159E-15 -0.1775651E+00
 -0.8844948E-01 -0.5437520E-01 -0.4976940E-01  -0.9841091E+00 -0.1498159E-15 -0.1775651E+00
 -0.1002657E+00 -0.5437520E-01  0.1571907E-01  -0.9841091E+00 -0.1498159E-15 -0.1775651E+00
 -0.1002657E+00  0.5437520E-01  0.1571907E-01  -0.9841091E+00 -0.1498159E-15 -0.1775651E+00
           6
  0.1002657E+00  0.5437520E-01 -0.1571907E-01  -0.0000000E+00  0.1000000E+01  0.2879941E-15
  0.8844948E-01  0.5437520E-01 -0.4976940E-01  -0.0000000E+00  0.1000000E+01  0.2879941E-15
 -0.8844948E-01  0.5437520E-01 -0.4976940E-01  -0.0000000E+00  0.1000000E+01  0.2879941E-15
 -0.1002657E+00  0.5437520E-01  0.1571907E-01  -0.0000000E+00  0.1000000E+01  0.2879941E-15
 -0.8844948E-01  0.5437520E-01  0.4976940E-01  -0.0000000E+00  0.1000000E+01  0.2879941E-15
  0.8844948E-01  0.5437520E-01  0.4976940E-01  -0.0000000E+00  0.1000000E+01  0.2879941E-15
           4
  0.8844948E-01 -0.5437520E-01  0.4976940E-01  -0.0000000E+00 -0.0000000E+00  0.1000000E+01
  0.8844948E-01  0.5437520E-01  0.4976940E-01  -0.0000000E+00 -0.0000000E+00  0.1000000E+01
 -0.8844948E-01  0.5437520E-01  0.4976940E-01  -0.0000000E+00 -0.0000000E+00  0.1000000E+01
 -0.8844948E-01 -0.5437520E-01  0.4976940E-01  -0.0000000E+00 -0.0000000E+00  0.1000000E+01
           4
 -0.1002657E+00  0.5437520E-01  0.1571907E-01  -0.9447320E+00 -0.1383046E-15  0.3278435E+00
 -0.1002657E+00 -0.5437520E-01  0.1571907E-01  -0.9447320E+00 -0.1383046E-15  0.3278435E+00
 -0.8844948E-01 -0.5437520E-01  0.4976940E-01  -0.9447320E+00 -0.1383046E-15  0.3278435E+00
 -0.8844948E-01  0.5437520E-01  0.4976940E-01  -0.9447320E+00 -0.1383046E-15  0.3278435E+00
 BRILLOUIN-ZONE-PRIMCELL_END
 BRILLOUIN-ZONE-CONVCELL
           4
  0.1002657E+00  0.5437520E-01 -0.1571907E-01   0.9447320E+00  0.5532186E-16 -0.3278435E+00
  0.1002657E+00 -0.5437520E-01 -0.1571907E-01   0.9447320E+00  0.5532186E-16 -0.3278435E+00
  0.8844948E-01 -0.5437520E-01 -0.4976940E-01   0.9447320E+00  0.5532186E-16 -0.3278435E+00
  0.8844948E-01  0.5437520E-01 -0.4976940E-01   0.9447320E+00  0.5532186E-16 -0.3278435E+00
           4
 -0.8844948E-01  0.5437520E-01 -0.4976940E-01   0.0000000E+00 -0.5426985E-16 -0.1000000E+01
  0.8844948E-01  0.5437520E-01 -0.4976940E-01   0.0000000E+00 -0.5426985E-16 -0.1000000E+01
  0.8844948E-01 -0.5437520E-01 -0.4976940E-01   0.0000000E+00 -0.5426985E-16 -0.1000000E+01
 -0.8844948E-01 -0.5437520E-01 -0.4976940E-01   0.0000000E+00 -0.5426985E-16 -0.1000000E+01
           6
  0.8844948E-01 -0.5437520E-01  0.4976940E-01   0.0000000E+00 -0.1000000E+01  0.2879941E-15
 -0.8844948E-01 -0.5437520E-01  0.4976940E-01   0.0000000E+00 -0.1000000E+01  0.2879941E-15
 -0.1002657E+00 -0.5437520E-01  0.1571907E-01   0.0000000E+00 -0.1000000E+01  0.2879941E-15
 -0.8844948E-01 -0.5437520E-01 -0.4976940E-01   0.0000000E+00 -0.1000000E+01  0.2879941E-15
  0.8844948E-01 -0.5437520E-01 -0.4976940E-01   0.0000000E+00 -0.1000000E+01  0.2879941E-15
  0.1002657E+00 -0.5437520E-01 -0.1571907E-01   0.0000000E+00 -0.1000000E+01  0.2879941E-15
           4
  0.8844948E-01  0.5437520E-01  0.4976940E-01   0.9841091E+00 -0.3370857E-15  0.1775651E+00
  0.8844948E-01 -0.5437520E-01  0.4976940E-01   0.9841091E+00 -0.3370857E-15  0.1775651E+00
  0.1002657E+00 -0.5437520E-01 -0.1571907E-01   0.9841091E+00 -0.3370857E-15  0.1775651E+00
  0.1002657E+00  0.5437520E-01 -0.1571907E-01   0.9841091E+00 -0.3370857E-15  0.1775651E+00
           4
 -0.8844948E-01  0.5437520E-01 -0.4976940E-01  -0.9841091E+00 -0.1498159E-15 -0.1775651E+00
 -0.8844948E-01 -0.5437520E-01 -0.4976940E-01  -0.9841091E+00 -0.1498159E-15 -0.1775651E+00
 -0.1002657E+00 -0.5437520E-01  0.1571907E-01  -0.9841091E+00 -0.1498159E-15 -0.1775651E+00
 -0.1002657E+00  0.5437520E-01  0.1571907E-01  -0.9841091E+00 -0.1498159E-15 -0.1775651E+00
           6
  0.1002657E+00  0.5437520E-01 -0.1571907E-01  -0.0000000E+00  0.1000000E+01  0.2879941E-15
  0.8844948E-01  0.5437520E-01 -0.4976940E-01  -0.0000000E+00  0.1000000E+01  0.2879941E-15
 -0.8844948E-01  0.5437520E-01 -0.4976940E-01  -0.0000000E+00  0.1000000E+01  0.2879941E-15
 -0.1002657E+00  0.5437520E-01  0.1571907E-01  -0.0000000E+00  0.1000000E+01  0.2879941E-15
 -0.8844948E-01  0.5437520E-01  0.4976940E-01  -0.0000000E+00  0.1000000E+01  0.2879941E-15
  0.8844948E-01  0.5437520E-01  0.4976940E-01  -0.0000000E+00  0.1000000E+01  0.2879941E-15
           4
  0.8844948E-01 -0.5437520E-01  0.4976940E-01  -0.0000000E+00 -0.0000000E+00  0.1000000E+01
  0.8844948E-01  0.5437520E-01  0.4976940E-01  -0.0000000E+00 -0.0000000E+00  0.1000000E+01
 -0.8844948E-01  0.5437520E-01  0.4976940E-01  -0.0000000E+00 -0.0000000E+00  0.1000000E+01
 -0.8844948E-01 -0.5437520E-01  0.4976940E-01  -0.0000000E+00 -0.0000000E+00  0.1000000E+01
           4
 -0.1002657E+00  0.5437520E-01  0.1571907E-01  -0.9447320E+00 -0.1383046E-15  0.3278435E+00
 -0.1002657E+00 -0.5437520E-01  0.1571907E-01  -0.9447320E+00 -0.1383046E-15  0.3278435E+00
 -0.8844948E-01 -0.5437520E-01  0.4976940E-01  -0.9447320E+00 -0.1383046E-15  0.3278435E+00
 -0.8844948E-01  0.5437520E-01  0.4976940E-01  -0.9447320E+00 -0.1383046E-15  0.3278435E+00
 BRILLOUIN-ZONE-CONVCELL_END
 ATOMS
   19    0.0000000000    4.5887359360    0.0000000000    0.0000000000    0.0005631000    0.0000000000
   12   -0.9063419100    0.0595932380    5.0231670320    0.0000000000   -0.0002372200    0.0000000000
   12   -0.9063419100    6.1306454860    5.0231670320    0.0000000000    0.0005156900    0.0000000000
   12    1.7431531220    4.5622952110    5.0231670320    0.0000000000   -0.0000020900    0.0000000000
   12    1.7431531220    7.6862814160    5.0231670320    0.0000000000    0.0000280400    0.0000000000
   12    1.7431531220    1.5699126300    5.0231670320    0.0000000000   -0.0007329600    0.0000000000
   14    0.0926517990    1.5050609850    2.2143187700    0.0001185500   -0.0000239700    0.0000890900
   14    3.3936543150    1.5050609850    7.8320155960   -0.0001185500   -0.0000239700   -0.0000890900
   14    3.5513485650    7.6748060740    7.7512616030   -0.0001207900   -0.0000244700   -0.0000201500
   14   -0.0650423220    7.6748060740    2.2950724610    0.0001207900   -0.0000244700    0.0000201500
   14    2.5842189680    6.1262535020    2.2806370780    0.0001897000    0.0001208100   -0.0000642900
   14    0.9020873030    6.1262535020    7.7656968360   -0.0001897000    0.0001208100    0.0000642900
   13    0.7426310080    3.0369493180    7.8071743130    0.0000238700    0.0002748400   -0.0004962000
   13    2.7436752350    3.0369493180    2.2391597520   -0.0000238700    0.0002748400    0.0004962000
    8    0.0338893340    1.4524627370    3.8410088250   -0.0001928300    0.0004965400   -0.0001307500
    8    3.4524166980    1.4524627370    6.2053255310    0.0001928300    0.0004965400    0.0001307500
    8    3.5243348730    7.6772559070    6.1347140040    0.0006826800   -0.0001175600   -0.0003009300
    8   -0.0380286290    7.6772559070    3.9116200610   -0.0006826800   -0.0001175600    0.0003009300
    8    2.6196569640    6.1580180230    3.9051061960    0.0002302700   -0.0003102100    0.0000511600
    8    0.8666492800    6.1580180230    6.1412278680   -0.0002302700   -0.0003102100   -0.0000511600
    8    0.8126542210    3.0687131180    6.0638701570   -0.0000992700   -0.0006666000   -0.0004808900
    8    2.6736520220    3.0687131180    3.9824639080    0.0000992700   -0.0006666000    0.0004808900
    8    1.5828999290    1.8418702910    1.6481161700    0.0002954200   -0.0001029800   -0.0002335300
    8    1.9034063690    1.8418702910    8.3982175930   -0.0002954200   -0.0001029800    0.0002335300
    8   -0.2946213180    9.1683157260    1.6474405320    0.0000161400   -0.0000584000   -0.0001365800
    8    2.1193783050    7.1041843080    8.3514746660    0.0002338800   -0.0005791400    0.0004443100
    8    1.3669279380    7.1041843080    1.6948593980   -0.0002338800   -0.0005791400   -0.0004443100
    8    4.0078632150    6.7523510840    1.6810731020   -0.0000941300    0.0003250900   -0.0002595200
    8   -0.5215569710    6.7523510840    8.3652609620    0.0000941300    0.0003250900    0.0002595200
    8    2.3717746070    4.6610436830    1.6290995350   -0.0003290700    0.0000596000   -0.0004386400
    8    1.1145314500    4.6610436830    8.4172346800    0.0003290700    0.0000596000    0.0004386400
    8   -0.8354613260    2.5674157800    8.4424509430    0.0001706000    0.0001517900   -0.0002617900
    8    4.3217676480    2.5674157800    1.6038831210   -0.0001706000    0.0001517900    0.0002617900
    8    0.0176452120    4.7077612730    3.9211021210   -0.0000482100   -0.0004618400   -0.0001975800
    8    3.4686611110    4.7077612730    6.1252319430    0.0000482100   -0.0004618400    0.0001975800
    8    2.6422306630    9.1901172550    3.9841341270    0.0001463600    0.0003707700   -0.0000212400
    8    0.8440756350    9.1901172550    6.0621996360   -0.0001463600    0.0003707700    0.0000212400
    1    0.0312878750    4.4907577020    2.9802271150   -0.0004854000    0.0000243900   -0.0005199700
    1    3.4550185270    4.4907577020    7.0661069500    0.0004854000    0.0000243900    0.0005199700
    1    2.5956016320    0.1436454150    3.0305573990    0.0000513300    0.0003886100   -0.0001622600
    1    0.8907046120    0.1436454150    7.0157766660   -0.0000513300    0.0003886100    0.0001622600
   26   -0.9063419100    3.0893135480    5.0231670320    0.0000000000   -0.0001758700    0.0000000000
   19   -1.8126838200    4.5887359360   10.0463340640    0.0000000000    0.0005631000    0.0000000000
   19    2.6494950310    9.1527054410    0.0000000000    0.0000000000    0.0003067500    0.0000000000
   19    0.8368112110    9.1527054410   10.0463340640    0.0000000000    0.0003067500    0.0000000000
   19    5.2989900630    4.5887359360    0.0000000000    0.0000000000    0.0005631000    0.0000000000
   12    4.3926481530    0.0595932380    5.0231670320    0.0000000000   -0.0002372200    0.0000000000
   12    4.3926481530    6.1306454860    5.0231670320    0.0000000000    0.0005156900    0.0000000000
    8    3.7809275880    9.1683157260    8.3988933820   -0.0000161400   -0.0000584000    0.0001365800
   26    4.3926481530    3.0893135480    5.0231670320    0.0000000000   -0.0001758700    0.0000000000
   19    3.4863062430    4.5887359360   10.0463340640    0.0000000000    0.0005631000    0.0000000000
 FRAMES
1      0.0000000000    0.0000000000    0.0000000000      5.2989900630    0.0000000000    0.0000000000
1      0.0000000000    0.0000000000    0.0000000000      0.0000000000    9.1953692500    0.0000000000
1      0.0000000000    0.0000000000    0.0000000000     -1.8126838200    0.0000000000   10.0463340640
1     -1.8126838200    0.0000000000   10.0463340640      3.4863062430    0.0000000000   10.0463340640
1     -1.8126838200    0.0000000000   10.0463340640     -1.8126838200    9.1953692500   10.0463340640
1      0.0000000000    9.1953692500    0.0000000000      5.2989900630    9.1953692500    0.0000000000
1      0.0000000000    9.1953692500    0.0000000000     -1.8126838200    9.1953692500   10.0463340640
1     -1.8126838200    9.1953692500   10.0463340640      3.4863062430    9.1953692500   10.0463340640
1      5.2989900630    0.0000000000    0.0000000000      5.2989900630    9.1953692500    0.0000000000
1      5.2989900630    0.0000000000    0.0000000000      3.4863062430    0.0000000000   10.0463340640
1      3.4863062430    0.0000000000   10.0463340640      3.4863062430    9.1953692500   10.0463340640
1      5.2989900630    9.1953692500    0.0000000000      3.4863062430    9.1953692500   10.0463340640
