 INFO
nunit      1    1    1
unit   cell
celltype   primcell
shape   parapipedal
 END_INFO
 DIM-GROUP
           3           1
 PRIMVEC
    5.3311026440    0.0000000000    0.0000000000
    0.0000000000    9.2613470720    0.0000000000
   -1.8211817180    0.0000000000   10.1333885280
 CONVVEC
    5.3311026440    0.0000000000    0.0000000000
    0.0000000000    9.2613470720    0.0000000000
   -1.8211817180    0.0000000000   10.1333885280
 PRIMCOORD
          43           1
 19      0.0000000000     4.6354600340     0.0000000000     0.0000000000    -0.0000759700     0.0000000000
 19      2.6655520250     0.0279386200     0.0000000000     0.0000000000    -0.0000319400     0.0000000000
 12     -0.9105894260     9.1882980140     5.0666919730     0.0000000000     0.0004319100     0.0000000000
 12     -0.9105894260     6.1292339830     5.0666919730     0.0000000000     0.0000917800     0.0000000000
 12      1.7549625940     4.5439563860     5.0666919730     0.0000000000     0.0000130300     0.0000000000
 12      1.7549625940     7.7811122680     5.0666919730     0.0000000000     0.0000045600     0.0000000000
 14     -0.0047510400     1.5191646870     2.2348629790    -0.0004677100    -0.0003998000     0.0003072400
 14      3.5146764320     1.5191646870     7.8985209560     0.0004677100    -0.0003998000    -0.0003072400
 14      3.5911997520     7.7085430180     7.8014908490    -0.0000089500    -0.0001034400     0.0001069600
 14     -0.0812744030     7.7085430180     2.3318926400     0.0000089500    -0.0001034400    -0.0001069600
 14      2.5779104940     6.1804288630     2.3175265560     0.0000646900     0.0003920000    -0.0001895600
 14      0.9320145140     6.1804288630     7.8158575300    -0.0000646900     0.0003920000     0.0001895600
 13      0.7913322000     3.0782441400     7.8753325740     0.0000107800     0.0002341800     0.0000455100
 13      2.7185927730     3.0782441400     2.2580516750    -0.0000107800     0.0002341800    -0.0000455100
  8     -0.1798309280     1.5698233620     3.8818919120    -0.0000958400     0.0000379900     0.0001719700
  8      3.6897560910     1.5698233620     6.2514917290     0.0000958400     0.0000379900    -0.0001719700
  8      3.5511572110     7.6372311300     6.1866561790     0.0001603400    -0.0002166500     0.0003903300
  8     -0.0412318880     7.6372311300     3.9467274620    -0.0001603400    -0.0002166500    -0.0003903300
  8      2.6227717170     6.1459884510     3.9486018300    -0.0003117900    -0.0001023300    -0.0005595100
  8      0.8871534730     6.1459884510     6.1847821050     0.0003117900    -0.0001023300     0.0005595100
  8      0.6380246290     3.1826765600     6.1238158620    -0.0001746100    -0.0003467500     0.0004605200
  8      2.8719006130     3.1826765600     4.0095677790     0.0001746100    -0.0003467500    -0.0004605200
  8      1.4747553170     1.9594244250     1.7688304920    -0.0000018100     0.0001986500    -0.0002159800
  8      2.0351698520     1.9594244250     8.3645526930     0.0000018100     0.0001986500     0.0002159800
  8     -0.2335409440     9.2221275990     1.7152408430     0.0001332100    -0.0002507700     0.0000729900
  8      3.7434660380     9.2221275990     8.4181429400    -0.0001332100    -0.0002507700    -0.0000729900
  8      2.1937773720     7.0782946140     8.4210046520    -0.0000510600    -0.0001608800    -0.0002736500
  8      1.3161477630     7.0782946140     1.7123795870     0.0000510600    -0.0001608800     0.0002736500
  8      3.9975418770     6.8168906110     1.7165775890     0.0000584900     0.0001142100     0.0001595200
  8     -0.4876164490     6.8168906110     8.4168063560    -0.0000584900     0.0001142100    -0.0001595200
  8      2.3982283780     4.7054827640     1.6579336580     0.0001403700     0.0002339600    -0.0000440300
  8      1.1116965240     4.7054827640     8.4754501250    -0.0001403700     0.0002339600     0.0000440300
  8     -0.7207688880     2.5060784940     8.5816233080     0.0001875700    -0.0002017500     0.0003693600
  8      4.2306943150     2.5060784940     1.5517601710    -0.0001875700    -0.0002017500    -0.0003693600
  8     -0.0200630770     4.5385380020     4.0229966170    -0.0001335600     0.0002716900     0.0000528800
  8      3.5299883250     4.5385380020     6.1103870240     0.0001335600     0.0002716900    -0.0000528800
  8      2.7622289630     9.0786670960     3.9248831040     0.0003219500    -0.0001492300    -0.0000163500
  8      0.7476963810     9.0786670960     6.2085008310    -0.0003219500    -0.0001492300     0.0000163500
  1     -0.1280926560     4.5080363200     3.0610380760    -0.0000546300    -0.0000654700     0.0003337800
  1      3.6380181500     4.5080363200     7.0723452610     0.0000546300    -0.0000654700    -0.0003337800
  1      2.3099840540     0.6721072910     3.8429253510    -0.0000246600     0.0001604800    -0.0001233000
  1      1.1999410790     0.6721072910     6.2904588980     0.0000246600     0.0001604800     0.0001233000
 22     -0.9105894260     2.8912310920     5.0666919730     0.0000000000     0.0002744100     0.0000000000
 CONVCOORD
          43           1
 19      0.0000000000     4.6354600340     0.0000000000
 19      2.6655520250     0.0279386200     0.0000000000
 12     -0.9105894260     9.1882980140     5.0666919730
 12     -0.9105894260     6.1292339830     5.0666919730
 12      1.7549625940     4.5439563860     5.0666919730
 12      1.7549625940     7.7811122680     5.0666919730
 14     -0.0047510400     1.5191646870     2.2348629790
 14      3.5146764320     1.5191646870     7.8985209560
 14      3.5911997520     7.7085430180     7.8014908490
 14     -0.0812744030     7.7085430180     2.3318926400
 14      2.5779104940     6.1804288630     2.3175265560
 14      0.9320145140     6.1804288630     7.8158575300
 13      0.7913322000     3.0782441400     7.8753325740
 13      2.7185927730     3.0782441400     2.2580516750
  8     -0.1798309280     1.5698233620     3.8818919120
  8      3.6897560910     1.5698233620     6.2514917290
  8      3.5511572110     7.6372311300     6.1866561790
  8     -0.0412318880     7.6372311300     3.9467274620
  8      2.6227717170     6.1459884510     3.9486018300
  8      0.8871534730     6.1459884510     6.1847821050
  8      0.6380246290     3.1826765600     6.1238158620
  8      2.8719006130     3.1826765600     4.0095677790
  8      1.4747553170     1.9594244250     1.7688304920
  8      2.0351698520     1.9594244250     8.3645526930
  8     -0.2335409440     9.2221275990     1.7152408430
  8      3.7434660380     9.2221275990     8.4181429400
  8      2.1937773720     7.0782946140     8.4210046520
  8      1.3161477630     7.0782946140     1.7123795870
  8      3.9975418770     6.8168906110     1.7165775890
  8     -0.4876164490     6.8168906110     8.4168063560
  8      2.3982283780     4.7054827640     1.6579336580
  8      1.1116965240     4.7054827640     8.4754501250
  8     -0.7207688880     2.5060784940     8.5816233080
  8      4.2306943150     2.5060784940     1.5517601710
  8     -0.0200630770     4.5385380020     4.0229966170
  8      3.5299883250     4.5385380020     6.1103870240
  8      2.7622289630     9.0786670960     3.9248831040
  8      0.7476963810     9.0786670960     6.2085008310
  1     -0.1280926560     4.5080363200     3.0610380760
  1      3.6380181500     4.5080363200     7.0723452610
  1      2.3099840540     0.6721072910     3.8429253510
  1      1.1999410790     0.6721072910     6.2904588980
 22     -0.9105894260     2.8912310920     5.0666919730
 RECIP-PRIMVEC
    0.1875784555   -0.0000000000    0.0337117691

    0.0000000000    0.1079756532   -0.0000000000

    0.0000000000    0.0000000000    0.0986836730

 RECIP-CONVVEC
    0.1875784555   -0.0000000000    0.0337117691

    0.0000000000    0.1079756532   -0.0000000000

    0.0000000000    0.0000000000    0.0986836730

 WIGNER-SEITZ-PRIMCELL
           4
 -0.2665551E+01  0.4630674E+01 -0.4751291E+01  -0.3272945E+00  0.6996512E-16 -0.9449224E+00
 -0.8443696E+00  0.4630674E+01 -0.5382097E+01  -0.3272945E+00  0.6996512E-16 -0.9449224E+00
 -0.8443696E+00 -0.4630674E+01 -0.5382097E+01  -0.3272945E+00  0.6996512E-16 -0.9449224E+00
 -0.2665551E+01 -0.4630674E+01 -0.4751291E+01  -0.3272945E+00  0.6996512E-16 -0.9449224E+00
           4
 -0.2665551E+01  0.4630674E+01 -0.4751291E+01  -0.1000000E+01 -0.4795082E-16 -0.0000000E+00
 -0.2665551E+01 -0.4630674E+01 -0.4751291E+01  -0.1000000E+01 -0.4795082E-16 -0.0000000E+00
 -0.2665551E+01 -0.4630674E+01  0.4751291E+01  -0.1000000E+01 -0.4795082E-16 -0.0000000E+00
 -0.2665551E+01  0.4630674E+01  0.4751291E+01  -0.1000000E+01 -0.4795082E-16 -0.0000000E+00
           6
  0.8443696E+00 -0.4630674E+01  0.5382097E+01   0.0000000E+00 -0.1000000E+01  0.0000000E+00
 -0.2665551E+01 -0.4630674E+01  0.4751291E+01   0.0000000E+00 -0.1000000E+01  0.0000000E+00
 -0.2665551E+01 -0.4630674E+01 -0.4751291E+01   0.0000000E+00 -0.1000000E+01  0.0000000E+00
 -0.8443696E+00 -0.4630674E+01 -0.5382097E+01   0.0000000E+00 -0.1000000E+01  0.0000000E+00
  0.2665551E+01 -0.4630674E+01 -0.4751291E+01   0.0000000E+00 -0.1000000E+01  0.0000000E+00
  0.2665551E+01 -0.4630674E+01  0.4751291E+01   0.0000000E+00 -0.1000000E+01  0.0000000E+00
           4
  0.2665551E+01 -0.4630674E+01 -0.4751291E+01   0.1768869E+00  0.5637927E-16 -0.9842312E+00
 -0.8443696E+00 -0.4630674E+01 -0.5382097E+01   0.1768869E+00  0.5637927E-16 -0.9842312E+00
 -0.8443696E+00  0.4630674E+01 -0.5382097E+01   0.1768869E+00  0.5637927E-16 -0.9842312E+00
  0.2665551E+01  0.4630674E+01 -0.4751291E+01   0.1768869E+00  0.5637927E-16 -0.9842312E+00
           4
  0.8443696E+00  0.4630674E+01  0.5382097E+01  -0.1768869E+00 -0.7236814E-16  0.9842312E+00
 -0.2665551E+01  0.4630674E+01  0.4751291E+01  -0.1768869E+00 -0.7236814E-16  0.9842312E+00
 -0.2665551E+01 -0.4630674E+01  0.4751291E+01  -0.1768869E+00 -0.7236814E-16  0.9842312E+00
  0.8443696E+00 -0.4630674E+01  0.5382097E+01  -0.1768869E+00 -0.7236814E-16  0.9842312E+00
           6
  0.2665551E+01  0.4630674E+01 -0.4751291E+01   0.0000000E+00  0.1000000E+01 -0.1056446E-14
 -0.8443696E+00  0.4630674E+01 -0.5382097E+01   0.0000000E+00  0.1000000E+01 -0.1056446E-14
 -0.2665551E+01  0.4630674E+01 -0.4751291E+01   0.0000000E+00  0.1000000E+01 -0.1056446E-14
 -0.2665551E+01  0.4630674E+01  0.4751291E+01   0.0000000E+00  0.1000000E+01 -0.1056446E-14
  0.8443696E+00  0.4630674E+01  0.5382097E+01   0.0000000E+00  0.1000000E+01 -0.1056446E-14
  0.2665551E+01  0.4630674E+01  0.4751291E+01   0.0000000E+00  0.1000000E+01 -0.1056446E-14
           4
  0.2665551E+01  0.4630674E+01  0.4751291E+01   0.1000000E+01  0.4795082E-16 -0.8963645E-32
  0.2665551E+01 -0.4630674E+01  0.4751291E+01   0.1000000E+01  0.4795082E-16 -0.8963645E-32
  0.2665551E+01 -0.4630674E+01 -0.4751291E+01   0.1000000E+01  0.4795082E-16 -0.8963645E-32
  0.2665551E+01  0.4630674E+01 -0.4751291E+01   0.1000000E+01  0.4795082E-16 -0.8963645E-32
           4
  0.8443696E+00 -0.4630674E+01  0.5382097E+01   0.3272945E+00  0.6877135E-16  0.9449224E+00
  0.2665551E+01 -0.4630674E+01  0.4751291E+01   0.3272945E+00  0.6877135E-16  0.9449224E+00
  0.2665551E+01  0.4630674E+01  0.4751291E+01   0.3272945E+00  0.6877135E-16  0.9449224E+00
  0.8443696E+00  0.4630674E+01  0.5382097E+01   0.3272945E+00  0.6877135E-16  0.9449224E+00
 WIGNER-SEITZ-PRIMCELL_END
 WIGNER-SEITZ-CONVCELL
           4
 -0.2665551E+01  0.4630674E+01 -0.4751291E+01  -0.3272945E+00  0.6996512E-16 -0.9449224E+00
 -0.8443696E+00  0.4630674E+01 -0.5382097E+01  -0.3272945E+00  0.6996512E-16 -0.9449224E+00
 -0.8443696E+00 -0.4630674E+01 -0.5382097E+01  -0.3272945E+00  0.6996512E-16 -0.9449224E+00
 -0.2665551E+01 -0.4630674E+01 -0.4751291E+01  -0.3272945E+00  0.6996512E-16 -0.9449224E+00
           4
 -0.2665551E+01  0.4630674E+01 -0.4751291E+01  -0.1000000E+01 -0.4795082E-16 -0.0000000E+00
 -0.2665551E+01 -0.4630674E+01 -0.4751291E+01  -0.1000000E+01 -0.4795082E-16 -0.0000000E+00
 -0.2665551E+01 -0.4630674E+01  0.4751291E+01  -0.1000000E+01 -0.4795082E-16 -0.0000000E+00
 -0.2665551E+01  0.4630674E+01  0.4751291E+01  -0.1000000E+01 -0.4795082E-16 -0.0000000E+00
           6
  0.8443696E+00 -0.4630674E+01  0.5382097E+01   0.0000000E+00 -0.1000000E+01  0.0000000E+00
 -0.2665551E+01 -0.4630674E+01  0.4751291E+01   0.0000000E+00 -0.1000000E+01  0.0000000E+00
 -0.2665551E+01 -0.4630674E+01 -0.4751291E+01   0.0000000E+00 -0.1000000E+01  0.0000000E+00
 -0.8443696E+00 -0.4630674E+01 -0.5382097E+01   0.0000000E+00 -0.1000000E+01  0.0000000E+00
  0.2665551E+01 -0.4630674E+01 -0.4751291E+01   0.0000000E+00 -0.1000000E+01  0.0000000E+00
  0.2665551E+01 -0.4630674E+01  0.4751291E+01   0.0000000E+00 -0.1000000E+01  0.0000000E+00
           4
  0.2665551E+01 -0.4630674E+01 -0.4751291E+01   0.1768869E+00  0.5637927E-16 -0.9842312E+00
 -0.8443696E+00 -0.4630674E+01 -0.5382097E+01   0.1768869E+00  0.5637927E-16 -0.9842312E+00
 -0.8443696E+00  0.4630674E+01 -0.5382097E+01   0.1768869E+00  0.5637927E-16 -0.9842312E+00
  0.2665551E+01  0.4630674E+01 -0.4751291E+01   0.1768869E+00  0.5637927E-16 -0.9842312E+00
           4
  0.8443696E+00  0.4630674E+01  0.5382097E+01  -0.1768869E+00 -0.7236814E-16  0.9842312E+00
 -0.2665551E+01  0.4630674E+01  0.4751291E+01  -0.1768869E+00 -0.7236814E-16  0.9842312E+00
 -0.2665551E+01 -0.4630674E+01  0.4751291E+01  -0.1768869E+00 -0.7236814E-16  0.9842312E+00
  0.8443696E+00 -0.4630674E+01  0.5382097E+01  -0.1768869E+00 -0.7236814E-16  0.9842312E+00
           6
  0.2665551E+01  0.4630674E+01 -0.4751291E+01   0.0000000E+00  0.1000000E+01 -0.1056446E-14
 -0.8443696E+00  0.4630674E+01 -0.5382097E+01   0.0000000E+00  0.1000000E+01 -0.1056446E-14
 -0.2665551E+01  0.4630674E+01 -0.4751291E+01   0.0000000E+00  0.1000000E+01 -0.1056446E-14
 -0.2665551E+01  0.4630674E+01  0.4751291E+01   0.0000000E+00  0.1000000E+01 -0.1056446E-14
  0.8443696E+00  0.4630674E+01  0.5382097E+01   0.0000000E+00  0.1000000E+01 -0.1056446E-14
  0.2665551E+01  0.4630674E+01  0.4751291E+01   0.0000000E+00  0.1000000E+01 -0.1056446E-14
           4
  0.2665551E+01  0.4630674E+01  0.4751291E+01   0.1000000E+01  0.4795082E-16 -0.8963645E-32
  0.2665551E+01 -0.4630674E+01  0.4751291E+01   0.1000000E+01  0.4795082E-16 -0.8963645E-32
  0.2665551E+01 -0.4630674E+01 -0.4751291E+01   0.1000000E+01  0.4795082E-16 -0.8963645E-32
  0.2665551E+01  0.4630674E+01 -0.4751291E+01   0.1000000E+01  0.4795082E-16 -0.8963645E-32
           4
  0.8443696E+00 -0.4630674E+01  0.5382097E+01   0.3272945E+00  0.6877135E-16  0.9449224E+00
  0.2665551E+01 -0.4630674E+01  0.4751291E+01   0.3272945E+00  0.6877135E-16  0.9449224E+00
  0.2665551E+01  0.4630674E+01  0.4751291E+01   0.3272945E+00  0.6877135E-16  0.9449224E+00
  0.8443696E+00  0.4630674E+01  0.5382097E+01   0.3272945E+00  0.6877135E-16  0.9449224E+00
 WIGNER-SEITZ-CONVCELL_END
 BRILLOUIN-ZONE-PRIMCELL
           4
  0.9962763E-01 -0.5398783E-01 -0.1563007E-01   0.9449224E+00 -0.2814486E-16 -0.3272945E+00
  0.8795082E-01 -0.5398783E-01 -0.4934184E-01   0.9449224E+00 -0.2814486E-16 -0.3272945E+00
  0.8795082E-01  0.5398783E-01 -0.4934184E-01   0.9449224E+00 -0.2814486E-16 -0.3272945E+00
  0.9962763E-01  0.5398783E-01 -0.1563007E-01   0.9449224E+00 -0.2814486E-16 -0.3272945E+00
           4
 -0.8795082E-01 -0.5398783E-01 -0.4934184E-01   0.2764078E-16  0.1826689E-15 -0.1000000E+01
 -0.8795082E-01  0.5398783E-01 -0.4934184E-01   0.2764078E-16  0.1826689E-15 -0.1000000E+01
  0.8795082E-01  0.5398783E-01 -0.4934184E-01   0.2764078E-16  0.1826689E-15 -0.1000000E+01
  0.8795082E-01 -0.5398783E-01 -0.4934184E-01   0.2764078E-16  0.1826689E-15 -0.1000000E+01
           6
  0.8795082E-01 -0.5398783E-01  0.4934184E-01   0.0000000E+00 -0.1000000E+01 -0.2925357E-15
 -0.8795082E-01 -0.5398783E-01  0.4934184E-01   0.0000000E+00 -0.1000000E+01 -0.2925357E-15
 -0.9962763E-01 -0.5398783E-01  0.1563007E-01   0.0000000E+00 -0.1000000E+01 -0.2925357E-15
 -0.8795082E-01 -0.5398783E-01 -0.4934184E-01   0.0000000E+00 -0.1000000E+01 -0.2925357E-15
  0.8795082E-01 -0.5398783E-01 -0.4934184E-01   0.0000000E+00 -0.1000000E+01 -0.2925357E-15
  0.9962763E-01 -0.5398783E-01 -0.1563007E-01   0.0000000E+00 -0.1000000E+01 -0.2925357E-15
           4
  0.8795082E-01  0.5398783E-01  0.4934184E-01   0.9842312E+00 -0.5704101E-16  0.1768869E+00
  0.8795082E-01 -0.5398783E-01  0.4934184E-01   0.9842312E+00 -0.5704101E-16  0.1768869E+00
  0.9962763E-01 -0.5398783E-01 -0.1563007E-01   0.9842312E+00 -0.5704101E-16  0.1768869E+00
  0.9962763E-01  0.5398783E-01 -0.1563007E-01   0.9842312E+00 -0.5704101E-16  0.1768869E+00
           4
 -0.8795082E-01  0.5398783E-01 -0.4934184E-01  -0.9842312E+00 -0.1368984E-15 -0.1768869E+00
 -0.8795082E-01 -0.5398783E-01 -0.4934184E-01  -0.9842312E+00 -0.1368984E-15 -0.1768869E+00
 -0.9962763E-01 -0.5398783E-01  0.1563007E-01  -0.9842312E+00 -0.1368984E-15 -0.1768869E+00
 -0.9962763E-01  0.5398783E-01  0.1563007E-01  -0.9842312E+00 -0.1368984E-15 -0.1768869E+00
           6
  0.9962763E-01  0.5398783E-01 -0.1563007E-01  -0.0000000E+00  0.1000000E+01 -0.2925357E-15
  0.8795082E-01  0.5398783E-01 -0.4934184E-01  -0.0000000E+00  0.1000000E+01 -0.2925357E-15
 -0.8795082E-01  0.5398783E-01 -0.4934184E-01  -0.0000000E+00  0.1000000E+01 -0.2925357E-15
 -0.9962763E-01  0.5398783E-01  0.1563007E-01  -0.0000000E+00  0.1000000E+01 -0.2925357E-15
 -0.8795082E-01  0.5398783E-01  0.4934184E-01  -0.0000000E+00  0.1000000E+01 -0.2925357E-15
  0.8795082E-01  0.5398783E-01  0.4934184E-01  -0.0000000E+00  0.1000000E+01 -0.2925357E-15
           4
  0.8795082E-01 -0.5398783E-01  0.4934184E-01  -0.0000000E+00 -0.0000000E+00  0.1000000E+01
  0.8795082E-01  0.5398783E-01  0.4934184E-01  -0.0000000E+00 -0.0000000E+00  0.1000000E+01
 -0.8795082E-01  0.5398783E-01  0.4934184E-01  -0.0000000E+00 -0.0000000E+00  0.1000000E+01
 -0.8795082E-01 -0.5398783E-01  0.4934184E-01  -0.0000000E+00 -0.0000000E+00  0.1000000E+01
           4
 -0.8795082E-01  0.5398783E-01  0.4934184E-01  -0.9449224E+00 -0.0000000E+00  0.3272945E+00
 -0.9962763E-01  0.5398783E-01  0.1563007E-01  -0.9449224E+00 -0.0000000E+00  0.3272945E+00
 -0.9962763E-01 -0.5398783E-01  0.1563007E-01  -0.9449224E+00 -0.0000000E+00  0.3272945E+00
 -0.8795082E-01 -0.5398783E-01  0.4934184E-01  -0.9449224E+00 -0.0000000E+00  0.3272945E+00
 BRILLOUIN-ZONE-PRIMCELL_END
 BRILLOUIN-ZONE-CONVCELL
           4
  0.9962763E-01 -0.5398783E-01 -0.1563007E-01   0.9449224E+00 -0.2814486E-16 -0.3272945E+00
  0.8795082E-01 -0.5398783E-01 -0.4934184E-01   0.9449224E+00 -0.2814486E-16 -0.3272945E+00
  0.8795082E-01  0.5398783E-01 -0.4934184E-01   0.9449224E+00 -0.2814486E-16 -0.3272945E+00
  0.9962763E-01  0.5398783E-01 -0.1563007E-01   0.9449224E+00 -0.2814486E-16 -0.3272945E+00
           4
 -0.8795082E-01 -0.5398783E-01 -0.4934184E-01   0.2764078E-16  0.1826689E-15 -0.1000000E+01
 -0.8795082E-01  0.5398783E-01 -0.4934184E-01   0.2764078E-16  0.1826689E-15 -0.1000000E+01
  0.8795082E-01  0.5398783E-01 -0.4934184E-01   0.2764078E-16  0.1826689E-15 -0.1000000E+01
  0.8795082E-01 -0.5398783E-01 -0.4934184E-01   0.2764078E-16  0.1826689E-15 -0.1000000E+01
           6
  0.8795082E-01 -0.5398783E-01  0.4934184E-01   0.0000000E+00 -0.1000000E+01 -0.2925357E-15
 -0.8795082E-01 -0.5398783E-01  0.4934184E-01   0.0000000E+00 -0.1000000E+01 -0.2925357E-15
 -0.9962763E-01 -0.5398783E-01  0.1563007E-01   0.0000000E+00 -0.1000000E+01 -0.2925357E-15
 -0.8795082E-01 -0.5398783E-01 -0.4934184E-01   0.0000000E+00 -0.1000000E+01 -0.2925357E-15
  0.8795082E-01 -0.5398783E-01 -0.4934184E-01   0.0000000E+00 -0.1000000E+01 -0.2925357E-15
  0.9962763E-01 -0.5398783E-01 -0.1563007E-01   0.0000000E+00 -0.1000000E+01 -0.2925357E-15
           4
  0.8795082E-01  0.5398783E-01  0.4934184E-01   0.9842312E+00 -0.5704101E-16  0.1768869E+00
  0.8795082E-01 -0.5398783E-01  0.4934184E-01   0.9842312E+00 -0.5704101E-16  0.1768869E+00
  0.9962763E-01 -0.5398783E-01 -0.1563007E-01   0.9842312E+00 -0.5704101E-16  0.1768869E+00
  0.9962763E-01  0.5398783E-01 -0.1563007E-01   0.9842312E+00 -0.5704101E-16  0.1768869E+00
           4
 -0.8795082E-01  0.5398783E-01 -0.4934184E-01  -0.9842312E+00 -0.1368984E-15 -0.1768869E+00
 -0.8795082E-01 -0.5398783E-01 -0.4934184E-01  -0.9842312E+00 -0.1368984E-15 -0.1768869E+00
 -0.9962763E-01 -0.5398783E-01  0.1563007E-01  -0.9842312E+00 -0.1368984E-15 -0.1768869E+00
 -0.9962763E-01  0.5398783E-01  0.1563007E-01  -0.9842312E+00 -0.1368984E-15 -0.1768869E+00
           6
  0.9962763E-01  0.5398783E-01 -0.1563007E-01  -0.0000000E+00  0.1000000E+01 -0.2925357E-15
  0.8795082E-01  0.5398783E-01 -0.4934184E-01  -0.0000000E+00  0.1000000E+01 -0.2925357E-15
 -0.8795082E-01  0.5398783E-01 -0.4934184E-01  -0.0000000E+00  0.1000000E+01 -0.2925357E-15
 -0.9962763E-01  0.5398783E-01  0.1563007E-01  -0.0000000E+00  0.1000000E+01 -0.2925357E-15
 -0.8795082E-01  0.5398783E-01  0.4934184E-01  -0.0000000E+00  0.1000000E+01 -0.2925357E-15
  0.8795082E-01  0.5398783E-01  0.4934184E-01  -0.0000000E+00  0.1000000E+01 -0.2925357E-15
           4
  0.8795082E-01 -0.5398783E-01  0.4934184E-01  -0.0000000E+00 -0.0000000E+00  0.1000000E+01
  0.8795082E-01  0.5398783E-01  0.4934184E-01  -0.0000000E+00 -0.0000000E+00  0.1000000E+01
 -0.8795082E-01  0.5398783E-01  0.4934184E-01  -0.0000000E+00 -0.0000000E+00  0.1000000E+01
 -0.8795082E-01 -0.5398783E-01  0.4934184E-01  -0.0000000E+00 -0.0000000E+00  0.1000000E+01
           4
 -0.8795082E-01  0.5398783E-01  0.4934184E-01  -0.9449224E+00 -0.0000000E+00  0.3272945E+00
 -0.9962763E-01  0.5398783E-01  0.1563007E-01  -0.9449224E+00 -0.0000000E+00  0.3272945E+00
 -0.9962763E-01 -0.5398783E-01  0.1563007E-01  -0.9449224E+00 -0.0000000E+00  0.3272945E+00
 -0.8795082E-01 -0.5398783E-01  0.4934184E-01  -0.9449224E+00 -0.0000000E+00  0.3272945E+00
 BRILLOUIN-ZONE-CONVCELL_END
 ATOMS
   19    0.0000000000    4.6354600340    0.0000000000    0.0000000000   -0.0000759700    0.0000000000
   19    2.6655520250    0.0279386200    0.0000000000    0.0000000000   -0.0000319400    0.0000000000
   12   -0.9105894260    9.1882980140    5.0666919730    0.0000000000    0.0004319100    0.0000000000
   12   -0.9105894260    6.1292339830    5.0666919730    0.0000000000    0.0000917800    0.0000000000
   12    1.7549625940    4.5439563860    5.0666919730    0.0000000000    0.0000130300    0.0000000000
   12    1.7549625940    7.7811122680    5.0666919730    0.0000000000    0.0000045600    0.0000000000
   14   -0.0047510400    1.5191646870    2.2348629790   -0.0004677100   -0.0003998000    0.0003072400
   14    3.5146764320    1.5191646870    7.8985209560    0.0004677100   -0.0003998000   -0.0003072400
   14    3.5911997520    7.7085430180    7.8014908490   -0.0000089500   -0.0001034400    0.0001069600
   14   -0.0812744030    7.7085430180    2.3318926400    0.0000089500   -0.0001034400   -0.0001069600
   14    2.5779104940    6.1804288630    2.3175265560    0.0000646900    0.0003920000   -0.0001895600
   14    0.9320145140    6.1804288630    7.8158575300   -0.0000646900    0.0003920000    0.0001895600
   13    0.7913322000    3.0782441400    7.8753325740    0.0000107800    0.0002341800    0.0000455100
   13    2.7185927730    3.0782441400    2.2580516750   -0.0000107800    0.0002341800   -0.0000455100
    8   -0.1798309280    1.5698233620    3.8818919120   -0.0000958400    0.0000379900    0.0001719700
    8    3.6897560910    1.5698233620    6.2514917290    0.0000958400    0.0000379900   -0.0001719700
    8    3.5511572110    7.6372311300    6.1866561790    0.0001603400   -0.0002166500    0.0003903300
    8   -0.0412318880    7.6372311300    3.9467274620   -0.0001603400   -0.0002166500   -0.0003903300
    8    2.6227717170    6.1459884510    3.9486018300   -0.0003117900   -0.0001023300   -0.0005595100
    8    0.8871534730    6.1459884510    6.1847821050    0.0003117900   -0.0001023300    0.0005595100
    8    0.6380246290    3.1826765600    6.1238158620   -0.0001746100   -0.0003467500    0.0004605200
    8    2.8719006130    3.1826765600    4.0095677790    0.0001746100   -0.0003467500   -0.0004605200
    8    1.4747553170    1.9594244250    1.7688304920   -0.0000018100    0.0001986500   -0.0002159800
    8    2.0351698520    1.9594244250    8.3645526930    0.0000018100    0.0001986500    0.0002159800
    8   -0.2335409440    9.2221275990    1.7152408430    0.0001332100   -0.0002507700    0.0000729900
    8    3.7434660380    9.2221275990    8.4181429400   -0.0001332100   -0.0002507700   -0.0000729900
    8    2.1937773720    7.0782946140    8.4210046520   -0.0000510600   -0.0001608800   -0.0002736500
    8    1.3161477630    7.0782946140    1.7123795870    0.0000510600   -0.0001608800    0.0002736500
    8    3.9975418770    6.8168906110    1.7165775890    0.0000584900    0.0001142100    0.0001595200
    8   -0.4876164490    6.8168906110    8.4168063560   -0.0000584900    0.0001142100   -0.0001595200
    8    2.3982283780    4.7054827640    1.6579336580    0.0001403700    0.0002339600   -0.0000440300
    8    1.1116965240    4.7054827640    8.4754501250   -0.0001403700    0.0002339600    0.0000440300
    8   -0.7207688880    2.5060784940    8.5816233080    0.0001875700   -0.0002017500    0.0003693600
    8    4.2306943150    2.5060784940    1.5517601710   -0.0001875700   -0.0002017500   -0.0003693600
    8   -0.0200630770    4.5385380020    4.0229966170   -0.0001335600    0.0002716900    0.0000528800
    8    3.5299883250    4.5385380020    6.1103870240    0.0001335600    0.0002716900   -0.0000528800
    8    2.7622289630    9.0786670960    3.9248831040    0.0003219500   -0.0001492300   -0.0000163500
    8    0.7476963810    9.0786670960    6.2085008310   -0.0003219500   -0.0001492300    0.0000163500
    1   -0.1280926560    4.5080363200    3.0610380760   -0.0000546300   -0.0000654700    0.0003337800
    1    3.6380181500    4.5080363200    7.0723452610    0.0000546300   -0.0000654700   -0.0003337800
    1    2.3099840540    0.6721072910    3.8429253510   -0.0000246600    0.0001604800   -0.0001233000
    1    1.1999410790    0.6721072910    6.2904588980    0.0000246600    0.0001604800    0.0001233000
   22   -0.9105894260    2.8912310920    5.0666919730    0.0000000000    0.0002744100    0.0000000000
   19   -1.8211817180    4.6354600340   10.1333885280    0.0000000000   -0.0000759700    0.0000000000
   19    0.8443703070    0.0279386200   10.1333885280    0.0000000000   -0.0000319400    0.0000000000
   19    5.3311026440    4.6354600340    0.0000000000    0.0000000000   -0.0000759700    0.0000000000
   12    4.4205132180    9.1882980140    5.0666919730    0.0000000000    0.0004319100    0.0000000000
   12    4.4205132180    6.1292339830    5.0666919730    0.0000000000    0.0000917800    0.0000000000
   22    4.4205132180    2.8912310920    5.0666919730    0.0000000000    0.0002744100    0.0000000000
   19    3.5099209260    4.6354600340   10.1333885280    0.0000000000   -0.0000759700    0.0000000000
 FRAMES
1      0.0000000000    0.0000000000    0.0000000000      5.3311026440    0.0000000000    0.0000000000
1      0.0000000000    0.0000000000    0.0000000000      0.0000000000    9.2613470720    0.0000000000
1      0.0000000000    0.0000000000    0.0000000000     -1.8211817180    0.0000000000   10.1333885280
1     -1.8211817180    0.0000000000   10.1333885280      3.5099209260    0.0000000000   10.1333885280
1     -1.8211817180    0.0000000000   10.1333885280     -1.8211817180    9.2613470720   10.1333885280
1      0.0000000000    9.2613470720    0.0000000000      5.3311026440    9.2613470720    0.0000000000
1      0.0000000000    9.2613470720    0.0000000000     -1.8211817180    9.2613470720   10.1333885280
1     -1.8211817180    9.2613470720   10.1333885280      3.5099209260    9.2613470720   10.1333885280
1      5.3311026440    0.0000000000    0.0000000000      5.3311026440    9.2613470720    0.0000000000
1      5.3311026440    0.0000000000    0.0000000000      3.5099209260    0.0000000000   10.1333885280
1      3.5099209260    0.0000000000   10.1333885280      3.5099209260    9.2613470720   10.1333885280
1      5.3311026440    9.2613470720    0.0000000000      3.5099209260    9.2613470720   10.1333885280
