 INFO
nunit      1    1    1
unit   cell
celltype   primcell
shape   parapipedal
 END_INFO
 DIM-GROUP
           3           1
 PRIMVEC
    5.2989900630    0.0000000000    0.0000000000
    0.0000000000    9.1953692500    0.0000000000
   -1.8126838200    0.0000000000   10.0463340640
 CONVVEC
    5.2989900630    0.0000000000    0.0000000000
    0.0000000000    9.1953692500    0.0000000000
   -1.8126838200    0.0000000000   10.0463340640
 PRIMCOORD
          43           1
 19      0.0000000000     4.6743748000     0.0000000000     0.0000000000    -0.0007665700     0.0000000000
 19      2.6494950310    -0.0256257740     0.0000000000     0.0000000000     0.0008658400     0.0000000000
 12     -0.9063419100     6.2314842900     5.0231670320     0.0000000000    -0.0003329300     0.0000000000
 12      1.7431531220     4.6208123330     5.0231670320     0.0000000000     0.0002319100     0.0000000000
 12      1.7431531220     7.7689475540     5.0231670320     0.0000000000     0.0005540200     0.0000000000
 12      1.7431531220     1.3922459690     5.0231670320     0.0000000000     0.0005086100     0.0000000000
 14      0.0605098850     1.5525322390     2.1675921200     0.0000724000     0.0000097500    -0.0001983100
 14      3.4257962290     1.5525322390     7.8787422460    -0.0000724000     0.0000097500     0.0001983100
 14      3.5217735180     7.6764299570     7.7422243990     0.0000402900     0.0001361100     0.0000830300
 14     -0.0354672750     7.6764299570     2.3041096660    -0.0000402900     0.0001361100    -0.0000830300
 14      2.5854369320     6.1729857680     2.2646942610    -0.0000554800     0.0001340200    -0.0003040100
 14      0.9008693380     6.1729857680     7.7816396530     0.0000554800     0.0001340200     0.0003040100
 13      0.7781641070     3.0504586830     7.8448781120     0.0000830900     0.0004014200     0.0005271500
 13      2.7081421360     3.0504586830     2.2014559520    -0.0000830900     0.0004014200    -0.0005271500
  8     -0.0059738360     1.7061800330     3.8272838780    -0.0003278600    -0.0001424500    -0.0000930600
  8      3.4922798680     1.7061800330     6.2190504780     0.0003278600    -0.0001424500     0.0000930600
  8      3.4713539420     7.5746966480     6.1563214670    -0.0000509800     0.0001660300     0.0000702600
  8      0.0149523020     7.5746966480     3.8900125970     0.0000509800     0.0001660300    -0.0000702600
  8      2.6071646750     6.1335650150     3.8944654090     0.0002517200     0.0001722400    -0.0004361600
  8      0.8791415680     6.1335650150     6.1518686560    -0.0002517200     0.0001722400     0.0004361600
  8      0.7294995130     3.0510349860     6.0522646380     0.0001150600    -0.0001039100     0.0006748700
  8      2.7568067310     3.0510349860     3.9940694270    -0.0001150600    -0.0001039100    -0.0006748700
  8      1.5019460970     1.9656447640     1.5868598380    -0.0000265700     0.0000132500     0.0001353300
  8      1.9843602000     1.9656447640     8.4594739250     0.0000265700     0.0000132500    -0.0001353300
  8      5.0376553340     9.1975127370     1.7152706660    -0.0000207200     0.0001078700    -0.0005163300
  8     -1.5513490640     9.1975127370     8.3310632480     0.0000207200     0.0001078700     0.0005163300
  8      2.1323864880     7.0834040170     8.4228762650     0.0000794000     0.0001077000    -0.0000181400
  8      1.3539197550     7.0834040170     1.6234577990    -0.0000794000     0.0001077000     0.0000181400
  8      4.0095915350     6.7859316770     1.6694415600     0.0003652500    -0.0005517800     0.0000599500
  8     -0.5232852910     6.7859316770     8.3768925040    -0.0003652500    -0.0005517800    -0.0000599500
  8      2.3791409280     4.6844319800     1.6516230570    -0.0006374700     0.0000785000    -0.0000709200
  8      1.1071651290     4.6844319800     8.3947111590     0.0006374700     0.0000785000     0.0000709200
  8     -0.7707077830     2.5690466020     8.4899960640     0.0001106600     0.0000504500     0.0000423000
  8      4.2570141060     2.5690466020     1.5563380010    -0.0001106600     0.0000504500    -0.0000423000
  8     -0.0674651270     4.5390013300     4.0160948070    -0.0003398100    -0.0003514500    -0.0000162200
  8      3.5537714500     4.5390013300     6.0302392580     0.0003398100    -0.0003514500     0.0000162200
  8      2.5323150020     9.2056752370     3.8396854720     0.0000274500    -0.0004810500    -0.0005643900
  8      0.9539912950     9.2056752370     6.2066482920    -0.0000274500    -0.0004810500     0.0005643900
  1     -0.0902167040     4.4668505990     3.0493615190    -0.0002041900     0.0000295600    -0.0000927400
  1      3.5765231060     4.4668505990     6.9969725450     0.0002041900     0.0000295600     0.0000927400
  1      3.5001099910    -0.0604149790     3.8948202060    -0.0006339600     0.0000108800     0.0002017200
  1     -0.0138037480    -0.0604149790     6.1515138590     0.0006339600     0.0000108800    -0.0002017200
 22     -0.9063419100     2.8900239260     5.0231670320     0.0000000000    -0.0006352000     0.0000000000
 CONVCOORD
          43           1
 19      0.0000000000     4.6743748000     0.0000000000
 19      2.6494950310    -0.0256257740     0.0000000000
 12     -0.9063419100     6.2314842900     5.0231670320
 12      1.7431531220     4.6208123330     5.0231670320
 12      1.7431531220     7.7689475540     5.0231670320
 12      1.7431531220     1.3922459690     5.0231670320
 14      0.0605098850     1.5525322390     2.1675921200
 14      3.4257962290     1.5525322390     7.8787422460
 14      3.5217735180     7.6764299570     7.7422243990
 14     -0.0354672750     7.6764299570     2.3041096660
 14      2.5854369320     6.1729857680     2.2646942610
 14      0.9008693380     6.1729857680     7.7816396530
 13      0.7781641070     3.0504586830     7.8448781120
 13      2.7081421360     3.0504586830     2.2014559520
  8     -0.0059738360     1.7061800330     3.8272838780
  8      3.4922798680     1.7061800330     6.2190504780
  8      3.4713539420     7.5746966480     6.1563214670
  8      0.0149523020     7.5746966480     3.8900125970
  8      2.6071646750     6.1335650150     3.8944654090
  8      0.8791415680     6.1335650150     6.1518686560
  8      0.7294995130     3.0510349860     6.0522646380
  8      2.7568067310     3.0510349860     3.9940694270
  8      1.5019460970     1.9656447640     1.5868598380
  8      1.9843602000     1.9656447640     8.4594739250
  8     -0.2613347290     0.0021434870     1.7152706660
  8     -1.5513490640     0.0021434870     8.3310632480
  8      2.1323864880     7.0834040170     8.4228762650
  8      1.3539197550     7.0834040170     1.6234577990
  8      4.0095915350     6.7859316770     1.6694415600
  8     -0.5232852910     6.7859316770     8.3768925040
  8      2.3791409280     4.6844319800     1.6516230570
  8      1.1071651290     4.6844319800     8.3947111590
  8     -0.7707077830     2.5690466020     8.4899960640
  8      4.2570141060     2.5690466020     1.5563380010
  8     -0.0674651270     4.5390013300     4.0160948070
  8      3.5537714500     4.5390013300     6.0302392580
  8      2.5323150020     0.0103059870     3.8396854720
  8      0.9539912950     0.0103059870     6.2066482920
  1     -0.0902167040     4.4668505990     3.0493615190
  1      3.5765231060     4.4668505990     6.9969725450
  1      3.5001099910    -0.0604149790     3.8948202060
  1     -0.0138037480    -0.0604149790     6.1515138590
 22     -0.9063419100     2.8900239260     5.0231670320
 RECIP-PRIMVEC
    0.1887152057   -0.0000000000    0.0340503310

    0.0000000000    0.1087503909   -0.0000000000

    0.0000000000    0.0000000000    0.0995387963

 RECIP-CONVVEC
    0.1887152057   -0.0000000000    0.0340503310

    0.0000000000    0.1087503909   -0.0000000000

    0.0000000000    0.0000000000    0.0995387963

 WIGNER-SEITZ-PRIMCELL
           4
 -0.2649495E+01  0.4597685E+01 -0.4708646E+01  -0.3278435E+00 -0.1009766E-15 -0.9447320E+00
 -0.8368112E+00  0.4597685E+01 -0.5337688E+01  -0.3278435E+00 -0.1009766E-15 -0.9447320E+00
 -0.8368112E+00 -0.4597685E+01 -0.5337688E+01  -0.3278435E+00 -0.1009766E-15 -0.9447320E+00
 -0.2649495E+01 -0.4597685E+01 -0.4708646E+01  -0.3278435E+00 -0.1009766E-15 -0.9447320E+00
           4
 -0.2649495E+01  0.4597685E+01 -0.4708646E+01  -0.1000000E+01  0.4829488E-16  0.4554862E-32
 -0.2649495E+01 -0.4597685E+01 -0.4708646E+01  -0.1000000E+01  0.4829488E-16  0.4554862E-32
 -0.2649495E+01 -0.4597685E+01  0.4708646E+01  -0.1000000E+01  0.4829488E-16  0.4554862E-32
 -0.2649495E+01  0.4597685E+01  0.4708646E+01  -0.1000000E+01  0.4829488E-16  0.4554862E-32
           6
  0.2649495E+01 -0.4597685E+01  0.4708646E+01  -0.0000000E+00 -0.1000000E+01  0.1065828E-14
  0.8368112E+00 -0.4597685E+01  0.5337688E+01  -0.0000000E+00 -0.1000000E+01  0.1065828E-14
 -0.2649495E+01 -0.4597685E+01  0.4708646E+01  -0.0000000E+00 -0.1000000E+01  0.1065828E-14
 -0.2649495E+01 -0.4597685E+01 -0.4708646E+01  -0.0000000E+00 -0.1000000E+01  0.1065828E-14
 -0.8368112E+00 -0.4597685E+01 -0.5337688E+01  -0.0000000E+00 -0.1000000E+01  0.1065828E-14
  0.2649495E+01 -0.4597685E+01 -0.4708646E+01  -0.0000000E+00 -0.1000000E+01  0.1065828E-14
           4
  0.2649495E+01 -0.4597685E+01 -0.4708646E+01   0.1775651E+00 -0.2181216E-15 -0.9841091E+00
 -0.8368112E+00 -0.4597685E+01 -0.5337688E+01   0.1775651E+00 -0.2181216E-15 -0.9841091E+00
 -0.8368112E+00  0.4597685E+01 -0.5337688E+01   0.1775651E+00 -0.2181216E-15 -0.9841091E+00
  0.2649495E+01  0.4597685E+01 -0.4708646E+01   0.1775651E+00 -0.2181216E-15 -0.9841091E+00
           4
 -0.2649495E+01  0.4597685E+01  0.4708646E+01  -0.1775651E+00 -0.0000000E+00  0.9841091E+00
 -0.2649495E+01 -0.4597685E+01  0.4708646E+01  -0.1775651E+00 -0.0000000E+00  0.9841091E+00
  0.8368112E+00 -0.4597685E+01  0.5337688E+01  -0.1775651E+00 -0.0000000E+00  0.9841091E+00
  0.8368112E+00  0.4597685E+01  0.5337688E+01  -0.1775651E+00 -0.0000000E+00  0.9841091E+00
           6
  0.2649495E+01  0.4597685E+01 -0.4708646E+01   0.0000000E+00  0.1000000E+01  0.1065828E-14
 -0.8368112E+00  0.4597685E+01 -0.5337688E+01   0.0000000E+00  0.1000000E+01  0.1065828E-14
 -0.2649495E+01  0.4597685E+01 -0.4708646E+01   0.0000000E+00  0.1000000E+01  0.1065828E-14
 -0.2649495E+01  0.4597685E+01  0.4708646E+01   0.0000000E+00  0.1000000E+01  0.1065828E-14
  0.8368112E+00  0.4597685E+01  0.5337688E+01   0.0000000E+00  0.1000000E+01  0.1065828E-14
  0.2649495E+01  0.4597685E+01  0.4708646E+01   0.0000000E+00  0.1000000E+01  0.1065828E-14
           4
  0.2649495E+01  0.4597685E+01  0.4708646E+01   0.1000000E+01 -0.4829488E-16  0.0000000E+00
  0.2649495E+01 -0.4597685E+01  0.4708646E+01   0.1000000E+01 -0.4829488E-16  0.0000000E+00
  0.2649495E+01 -0.4597685E+01 -0.4708646E+01   0.1000000E+01 -0.4829488E-16  0.0000000E+00
  0.2649495E+01  0.4597685E+01 -0.4708646E+01   0.1000000E+01 -0.4829488E-16  0.0000000E+00
           4
  0.8368112E+00 -0.4597685E+01  0.5337688E+01   0.3278435E+00  0.3334111E-16  0.9447320E+00
  0.2649495E+01 -0.4597685E+01  0.4708646E+01   0.3278435E+00  0.3334111E-16  0.9447320E+00
  0.2649495E+01  0.4597685E+01  0.4708646E+01   0.3278435E+00  0.3334111E-16  0.9447320E+00
  0.8368112E+00  0.4597685E+01  0.5337688E+01   0.3278435E+00  0.3334111E-16  0.9447320E+00
 WIGNER-SEITZ-PRIMCELL_END
 WIGNER-SEITZ-CONVCELL
           4
 -0.2649495E+01  0.4597685E+01 -0.4708646E+01  -0.3278435E+00 -0.1009766E-15 -0.9447320E+00
 -0.8368112E+00  0.4597685E+01 -0.5337688E+01  -0.3278435E+00 -0.1009766E-15 -0.9447320E+00
 -0.8368112E+00 -0.4597685E+01 -0.5337688E+01  -0.3278435E+00 -0.1009766E-15 -0.9447320E+00
 -0.2649495E+01 -0.4597685E+01 -0.4708646E+01  -0.3278435E+00 -0.1009766E-15 -0.9447320E+00
           4
 -0.2649495E+01  0.4597685E+01 -0.4708646E+01  -0.1000000E+01  0.4829488E-16  0.4554862E-32
 -0.2649495E+01 -0.4597685E+01 -0.4708646E+01  -0.1000000E+01  0.4829488E-16  0.4554862E-32
 -0.2649495E+01 -0.4597685E+01  0.4708646E+01  -0.1000000E+01  0.4829488E-16  0.4554862E-32
 -0.2649495E+01  0.4597685E+01  0.4708646E+01  -0.1000000E+01  0.4829488E-16  0.4554862E-32
           6
  0.2649495E+01 -0.4597685E+01  0.4708646E+01  -0.0000000E+00 -0.1000000E+01  0.1065828E-14
  0.8368112E+00 -0.4597685E+01  0.5337688E+01  -0.0000000E+00 -0.1000000E+01  0.1065828E-14
 -0.2649495E+01 -0.4597685E+01  0.4708646E+01  -0.0000000E+00 -0.1000000E+01  0.1065828E-14
 -0.2649495E+01 -0.4597685E+01 -0.4708646E+01  -0.0000000E+00 -0.1000000E+01  0.1065828E-14
 -0.8368112E+00 -0.4597685E+01 -0.5337688E+01  -0.0000000E+00 -0.1000000E+01  0.1065828E-14
  0.2649495E+01 -0.4597685E+01 -0.4708646E+01  -0.0000000E+00 -0.1000000E+01  0.1065828E-14
           4
  0.2649495E+01 -0.4597685E+01 -0.4708646E+01   0.1775651E+00 -0.2181216E-15 -0.9841091E+00
 -0.8368112E+00 -0.4597685E+01 -0.5337688E+01   0.1775651E+00 -0.2181216E-15 -0.9841091E+00
 -0.8368112E+00  0.4597685E+01 -0.5337688E+01   0.1775651E+00 -0.2181216E-15 -0.9841091E+00
  0.2649495E+01  0.4597685E+01 -0.4708646E+01   0.1775651E+00 -0.2181216E-15 -0.9841091E+00
           4
 -0.2649495E+01  0.4597685E+01  0.4708646E+01  -0.1775651E+00 -0.0000000E+00  0.9841091E+00
 -0.2649495E+01 -0.4597685E+01  0.4708646E+01  -0.1775651E+00 -0.0000000E+00  0.9841091E+00
  0.8368112E+00 -0.4597685E+01  0.5337688E+01  -0.1775651E+00 -0.0000000E+00  0.9841091E+00
  0.8368112E+00  0.4597685E+01  0.5337688E+01  -0.1775651E+00 -0.0000000E+00  0.9841091E+00
           6
  0.2649495E+01  0.4597685E+01 -0.4708646E+01   0.0000000E+00  0.1000000E+01  0.1065828E-14
 -0.8368112E+00  0.4597685E+01 -0.5337688E+01   0.0000000E+00  0.1000000E+01  0.1065828E-14
 -0.2649495E+01  0.4597685E+01 -0.4708646E+01   0.0000000E+00  0.1000000E+01  0.1065828E-14
 -0.2649495E+01  0.4597685E+01  0.4708646E+01   0.0000000E+00  0.1000000E+01  0.1065828E-14
  0.8368112E+00  0.4597685E+01  0.5337688E+01   0.0000000E+00  0.1000000E+01  0.1065828E-14
  0.2649495E+01  0.4597685E+01  0.4708646E+01   0.0000000E+00  0.1000000E+01  0.1065828E-14
           4
  0.2649495E+01  0.4597685E+01  0.4708646E+01   0.1000000E+01 -0.4829488E-16  0.0000000E+00
  0.2649495E+01 -0.4597685E+01  0.4708646E+01   0.1000000E+01 -0.4829488E-16  0.0000000E+00
  0.2649495E+01 -0.4597685E+01 -0.4708646E+01   0.1000000E+01 -0.4829488E-16  0.0000000E+00
  0.2649495E+01  0.4597685E+01 -0.4708646E+01   0.1000000E+01 -0.4829488E-16  0.0000000E+00
           4
  0.8368112E+00 -0.4597685E+01  0.5337688E+01   0.3278435E+00  0.3334111E-16  0.9447320E+00
  0.2649495E+01 -0.4597685E+01  0.4708646E+01   0.3278435E+00  0.3334111E-16  0.9447320E+00
  0.2649495E+01  0.4597685E+01  0.4708646E+01   0.3278435E+00  0.3334111E-16  0.9447320E+00
  0.8368112E+00  0.4597685E+01  0.5337688E+01   0.3278435E+00  0.3334111E-16  0.9447320E+00
 WIGNER-SEITZ-CONVCELL_END
 BRILLOUIN-ZONE-PRIMCELL
           4
  0.1002657E+00  0.5437520E-01 -0.1571907E-01   0.9447320E+00  0.5532186E-16 -0.3278435E+00
  0.1002657E+00 -0.5437520E-01 -0.1571907E-01   0.9447320E+00  0.5532186E-16 -0.3278435E+00
  0.8844948E-01 -0.5437520E-01 -0.4976940E-01   0.9447320E+00  0.5532186E-16 -0.3278435E+00
  0.8844948E-01  0.5437520E-01 -0.4976940E-01   0.9447320E+00  0.5532186E-16 -0.3278435E+00
           4
 -0.8844948E-01  0.5437520E-01 -0.4976940E-01   0.0000000E+00 -0.5426985E-16 -0.1000000E+01
  0.8844948E-01  0.5437520E-01 -0.4976940E-01   0.0000000E+00 -0.5426985E-16 -0.1000000E+01
  0.8844948E-01 -0.5437520E-01 -0.4976940E-01   0.0000000E+00 -0.5426985E-16 -0.1000000E+01
 -0.8844948E-01 -0.5437520E-01 -0.4976940E-01   0.0000000E+00 -0.5426985E-16 -0.1000000E+01
           6
  0.8844948E-01 -0.5437520E-01  0.4976940E-01   0.0000000E+00 -0.1000000E+01  0.2879941E-15
 -0.8844948E-01 -0.5437520E-01  0.4976940E-01   0.0000000E+00 -0.1000000E+01  0.2879941E-15
 -0.1002657E+00 -0.5437520E-01  0.1571907E-01   0.0000000E+00 -0.1000000E+01  0.2879941E-15
 -0.8844948E-01 -0.5437520E-01 -0.4976940E-01   0.0000000E+00 -0.1000000E+01  0.2879941E-15
  0.8844948E-01 -0.5437520E-01 -0.4976940E-01   0.0000000E+00 -0.1000000E+01  0.2879941E-15
  0.1002657E+00 -0.5437520E-01 -0.1571907E-01   0.0000000E+00 -0.1000000E+01  0.2879941E-15
           4
  0.8844948E-01  0.5437520E-01  0.4976940E-01   0.9841091E+00 -0.3370857E-15  0.1775651E+00
  0.8844948E-01 -0.5437520E-01  0.4976940E-01   0.9841091E+00 -0.3370857E-15  0.1775651E+00
  0.1002657E+00 -0.5437520E-01 -0.1571907E-01   0.9841091E+00 -0.3370857E-15  0.1775651E+00
  0.1002657E+00  0.5437520E-01 -0.1571907E-01   0.9841091E+00 -0.3370857E-15  0.1775651E+00
           4
 -0.8844948E-01  0.5437520E-01 -0.4976940E-01  -0.9841091E+00 -0.1498159E-15 -0.1775651E+00
 -0.8844948E-01 -0.5437520E-01 -0.4976940E-01  -0.9841091E+00 -0.1498159E-15 -0.1775651E+00
 -0.1002657E+00 -0.5437520E-01  0.1571907E-01  -0.9841091E+00 -0.1498159E-15 -0.1775651E+00
 -0.1002657E+00  0.5437520E-01  0.1571907E-01  -0.9841091E+00 -0.1498159E-15 -0.1775651E+00
           6
  0.1002657E+00  0.5437520E-01 -0.1571907E-01  -0.0000000E+00  0.1000000E+01  0.2879941E-15
  0.8844948E-01  0.5437520E-01 -0.4976940E-01  -0.0000000E+00  0.1000000E+01  0.2879941E-15
 -0.8844948E-01  0.5437520E-01 -0.4976940E-01  -0.0000000E+00  0.1000000E+01  0.2879941E-15
 -0.1002657E+00  0.5437520E-01  0.1571907E-01  -0.0000000E+00  0.1000000E+01  0.2879941E-15
 -0.8844948E-01  0.5437520E-01  0.4976940E-01  -0.0000000E+00  0.1000000E+01  0.2879941E-15
  0.8844948E-01  0.5437520E-01  0.4976940E-01  -0.0000000E+00  0.1000000E+01  0.2879941E-15
           4
  0.8844948E-01 -0.5437520E-01  0.4976940E-01  -0.0000000E+00 -0.0000000E+00  0.1000000E+01
  0.8844948E-01  0.5437520E-01  0.4976940E-01  -0.0000000E+00 -0.0000000E+00  0.1000000E+01
 -0.8844948E-01  0.5437520E-01  0.4976940E-01  -0.0000000E+00 -0.0000000E+00  0.1000000E+01
 -0.8844948E-01 -0.5437520E-01  0.4976940E-01  -0.0000000E+00 -0.0000000E+00  0.1000000E+01
           4
 -0.1002657E+00  0.5437520E-01  0.1571907E-01  -0.9447320E+00 -0.1383046E-15  0.3278435E+00
 -0.1002657E+00 -0.5437520E-01  0.1571907E-01  -0.9447320E+00 -0.1383046E-15  0.3278435E+00
 -0.8844948E-01 -0.5437520E-01  0.4976940E-01  -0.9447320E+00 -0.1383046E-15  0.3278435E+00
 -0.8844948E-01  0.5437520E-01  0.4976940E-01  -0.9447320E+00 -0.1383046E-15  0.3278435E+00
 BRILLOUIN-ZONE-PRIMCELL_END
 BRILLOUIN-ZONE-CONVCELL
           4
  0.1002657E+00  0.5437520E-01 -0.1571907E-01   0.9447320E+00  0.5532186E-16 -0.3278435E+00
  0.1002657E+00 -0.5437520E-01 -0.1571907E-01   0.9447320E+00  0.5532186E-16 -0.3278435E+00
  0.8844948E-01 -0.5437520E-01 -0.4976940E-01   0.9447320E+00  0.5532186E-16 -0.3278435E+00
  0.8844948E-01  0.5437520E-01 -0.4976940E-01   0.9447320E+00  0.5532186E-16 -0.3278435E+00
           4
 -0.8844948E-01  0.5437520E-01 -0.4976940E-01   0.0000000E+00 -0.5426985E-16 -0.1000000E+01
  0.8844948E-01  0.5437520E-01 -0.4976940E-01   0.0000000E+00 -0.5426985E-16 -0.1000000E+01
  0.8844948E-01 -0.5437520E-01 -0.4976940E-01   0.0000000E+00 -0.5426985E-16 -0.1000000E+01
 -0.8844948E-01 -0.5437520E-01 -0.4976940E-01   0.0000000E+00 -0.5426985E-16 -0.1000000E+01
           6
  0.8844948E-01 -0.5437520E-01  0.4976940E-01   0.0000000E+00 -0.1000000E+01  0.2879941E-15
 -0.8844948E-01 -0.5437520E-01  0.4976940E-01   0.0000000E+00 -0.1000000E+01  0.2879941E-15
 -0.1002657E+00 -0.5437520E-01  0.1571907E-01   0.0000000E+00 -0.1000000E+01  0.2879941E-15
 -0.8844948E-01 -0.5437520E-01 -0.4976940E-01   0.0000000E+00 -0.1000000E+01  0.2879941E-15
  0.8844948E-01 -0.5437520E-01 -0.4976940E-01   0.0000000E+00 -0.1000000E+01  0.2879941E-15
  0.1002657E+00 -0.5437520E-01 -0.1571907E-01   0.0000000E+00 -0.1000000E+01  0.2879941E-15
           4
  0.8844948E-01  0.5437520E-01  0.4976940E-01   0.9841091E+00 -0.3370857E-15  0.1775651E+00
  0.8844948E-01 -0.5437520E-01  0.4976940E-01   0.9841091E+00 -0.3370857E-15  0.1775651E+00
  0.1002657E+00 -0.5437520E-01 -0.1571907E-01   0.9841091E+00 -0.3370857E-15  0.1775651E+00
  0.1002657E+00  0.5437520E-01 -0.1571907E-01   0.9841091E+00 -0.3370857E-15  0.1775651E+00
           4
 -0.8844948E-01  0.5437520E-01 -0.4976940E-01  -0.9841091E+00 -0.1498159E-15 -0.1775651E+00
 -0.8844948E-01 -0.5437520E-01 -0.4976940E-01  -0.9841091E+00 -0.1498159E-15 -0.1775651E+00
 -0.1002657E+00 -0.5437520E-01  0.1571907E-01  -0.9841091E+00 -0.1498159E-15 -0.1775651E+00
 -0.1002657E+00  0.5437520E-01  0.1571907E-01  -0.9841091E+00 -0.1498159E-15 -0.1775651E+00
           6
  0.1002657E+00  0.5437520E-01 -0.1571907E-01  -0.0000000E+00  0.1000000E+01  0.2879941E-15
  0.8844948E-01  0.5437520E-01 -0.4976940E-01  -0.0000000E+00  0.1000000E+01  0.2879941E-15
 -0.8844948E-01  0.5437520E-01 -0.4976940E-01  -0.0000000E+00  0.1000000E+01  0.2879941E-15
 -0.1002657E+00  0.5437520E-01  0.1571907E-01  -0.0000000E+00  0.1000000E+01  0.2879941E-15
 -0.8844948E-01  0.5437520E-01  0.4976940E-01  -0.0000000E+00  0.1000000E+01  0.2879941E-15
  0.8844948E-01  0.5437520E-01  0.4976940E-01  -0.0000000E+00  0.1000000E+01  0.2879941E-15
           4
  0.8844948E-01 -0.5437520E-01  0.4976940E-01  -0.0000000E+00 -0.0000000E+00  0.1000000E+01
  0.8844948E-01  0.5437520E-01  0.4976940E-01  -0.0000000E+00 -0.0000000E+00  0.1000000E+01
 -0.8844948E-01  0.5437520E-01  0.4976940E-01  -0.0000000E+00 -0.0000000E+00  0.1000000E+01
 -0.8844948E-01 -0.5437520E-01  0.4976940E-01  -0.0000000E+00 -0.0000000E+00  0.1000000E+01
           4
 -0.1002657E+00  0.5437520E-01  0.1571907E-01  -0.9447320E+00 -0.1383046E-15  0.3278435E+00
 -0.1002657E+00 -0.5437520E-01  0.1571907E-01  -0.9447320E+00 -0.1383046E-15  0.3278435E+00
 -0.8844948E-01 -0.5437520E-01  0.4976940E-01  -0.9447320E+00 -0.1383046E-15  0.3278435E+00
 -0.8844948E-01  0.5437520E-01  0.4976940E-01  -0.9447320E+00 -0.1383046E-15  0.3278435E+00
 BRILLOUIN-ZONE-CONVCELL_END
 ATOMS
   19    0.0000000000    4.6743748000    0.0000000000    0.0000000000   -0.0007665700    0.0000000000
   12   -0.9063419100    6.2314842900    5.0231670320    0.0000000000   -0.0003329300    0.0000000000
   12    1.7431531220    4.6208123330    5.0231670320    0.0000000000    0.0002319100    0.0000000000
   12    1.7431531220    7.7689475540    5.0231670320    0.0000000000    0.0005540200    0.0000000000
   12    1.7431531220    1.3922459690    5.0231670320    0.0000000000    0.0005086100    0.0000000000
   14    0.0605098850    1.5525322390    2.1675921200    0.0000724000    0.0000097500   -0.0001983100
   14    3.4257962290    1.5525322390    7.8787422460   -0.0000724000    0.0000097500    0.0001983100
   14    3.5217735180    7.6764299570    7.7422243990    0.0000402900    0.0001361100    0.0000830300
   14   -0.0354672750    7.6764299570    2.3041096660   -0.0000402900    0.0001361100   -0.0000830300
   14    2.5854369320    6.1729857680    2.2646942610   -0.0000554800    0.0001340200   -0.0003040100
   14    0.9008693380    6.1729857680    7.7816396530    0.0000554800    0.0001340200    0.0003040100
   13    0.7781641070    3.0504586830    7.8448781120    0.0000830900    0.0004014200    0.0005271500
   13    2.7081421360    3.0504586830    2.2014559520   -0.0000830900    0.0004014200   -0.0005271500
    8   -0.0059738360    1.7061800330    3.8272838780   -0.0003278600   -0.0001424500   -0.0000930600
    8    3.4922798680    1.7061800330    6.2190504780    0.0003278600   -0.0001424500    0.0000930600
    8    3.4713539420    7.5746966480    6.1563214670   -0.0000509800    0.0001660300    0.0000702600
    8    0.0149523020    7.5746966480    3.8900125970    0.0000509800    0.0001660300   -0.0000702600
    8    2.6071646750    6.1335650150    3.8944654090    0.0002517200    0.0001722400   -0.0004361600
    8    0.8791415680    6.1335650150    6.1518686560   -0.0002517200    0.0001722400    0.0004361600
    8    0.7294995130    3.0510349860    6.0522646380    0.0001150600   -0.0001039100    0.0006748700
    8    2.7568067310    3.0510349860    3.9940694270   -0.0001150600   -0.0001039100   -0.0006748700
    8    1.5019460970    1.9656447640    1.5868598380   -0.0000265700    0.0000132500    0.0001353300
    8    1.9843602000    1.9656447640    8.4594739250    0.0000265700    0.0000132500   -0.0001353300
    8   -0.2613347290    0.0021434870    1.7152706660   -0.0000207200    0.0001078700   -0.0005163300
    8    2.1323864880    7.0834040170    8.4228762650    0.0000794000    0.0001077000   -0.0000181400
    8    1.3539197550    7.0834040170    1.6234577990   -0.0000794000    0.0001077000    0.0000181400
    8    4.0095915350    6.7859316770    1.6694415600    0.0003652500   -0.0005517800    0.0000599500
    8   -0.5232852910    6.7859316770    8.3768925040   -0.0003652500   -0.0005517800   -0.0000599500
    8    2.3791409280    4.6844319800    1.6516230570   -0.0006374700    0.0000785000   -0.0000709200
    8    1.1071651290    4.6844319800    8.3947111590    0.0006374700    0.0000785000    0.0000709200
    8   -0.7707077830    2.5690466020    8.4899960640    0.0001106600    0.0000504500    0.0000423000
    8    4.2570141060    2.5690466020    1.5563380010   -0.0001106600    0.0000504500   -0.0000423000
    8   -0.0674651270    4.5390013300    4.0160948070   -0.0003398100   -0.0003514500   -0.0000162200
    8    3.5537714500    4.5390013300    6.0302392580    0.0003398100   -0.0003514500    0.0000162200
    8    2.5323150020    0.0103059870    3.8396854720    0.0000274500   -0.0004810500   -0.0005643900
    8    0.9539912950    0.0103059870    6.2066482920   -0.0000274500   -0.0004810500    0.0005643900
    1   -0.0902167040    4.4668505990    3.0493615190   -0.0002041900    0.0000295600   -0.0000927400
    1    3.5765231060    4.4668505990    6.9969725450    0.0002041900    0.0000295600    0.0000927400
   22   -0.9063419100    2.8900239260    5.0231670320    0.0000000000   -0.0006352000    0.0000000000
   19   -1.8126838200    4.6743748000   10.0463340640    0.0000000000   -0.0007665700    0.0000000000
   19    2.6494950310    9.1697434760    0.0000000000    0.0000000000    0.0008658400    0.0000000000
    1    3.5001099910    9.1349542710    3.8948202060   -0.0006339600    0.0000108800    0.0002017200
    1   -0.0138037480    9.1349542710    6.1515138590    0.0006339600    0.0000108800   -0.0002017200
   19    0.8368112110    9.1697434760   10.0463340640    0.0000000000    0.0008658400    0.0000000000
   19    5.2989900630    4.6743748000    0.0000000000    0.0000000000   -0.0007665700    0.0000000000
   12    4.3926481530    6.2314842900    5.0231670320    0.0000000000   -0.0003329300    0.0000000000
    8    3.7476409990    0.0021434870    8.3310632480    0.0000207200    0.0001078700    0.0005163300
   22    4.3926481530    2.8900239260    5.0231670320    0.0000000000   -0.0006352000    0.0000000000
   19    3.4863062430    4.6743748000   10.0463340640    0.0000000000   -0.0007665700    0.0000000000
 FRAMES
1      0.0000000000    0.0000000000    0.0000000000      5.2989900630    0.0000000000    0.0000000000
1      0.0000000000    0.0000000000    0.0000000000      0.0000000000    9.1953692500    0.0000000000
1      0.0000000000    0.0000000000    0.0000000000     -1.8126838200    0.0000000000   10.0463340640
1     -1.8126838200    0.0000000000   10.0463340640      3.4863062430    0.0000000000   10.0463340640
1     -1.8126838200    0.0000000000   10.0463340640     -1.8126838200    9.1953692500   10.0463340640
1      0.0000000000    9.1953692500    0.0000000000      5.2989900630    9.1953692500    0.0000000000
1      0.0000000000    9.1953692500    0.0000000000     -1.8126838200    9.1953692500   10.0463340640
1     -1.8126838200    9.1953692500   10.0463340640      3.4863062430    9.1953692500   10.0463340640
1      5.2989900630    0.0000000000    0.0000000000      5.2989900630    9.1953692500    0.0000000000
1      5.2989900630    0.0000000000    0.0000000000      3.4863062430    0.0000000000   10.0463340640
1      3.4863062430    0.0000000000   10.0463340640      3.4863062430    9.1953692500   10.0463340640
1      5.2989900630    9.1953692500    0.0000000000      3.4863062430    9.1953692500   10.0463340640
