 INFO
nunit      1    1    1
unit   cell
celltype   primcell
shape   parapipedal
 END_INFO
 DIM-GROUP
           3           1
 PRIMVEC
    5.3274032480    0.0000000000    0.0000000000
    0.0000000000    9.2520101550    0.0000000000
   -1.8365557700    0.0000000000   10.0714088860
 CONVVEC
    5.3274032480    0.0000000000    0.0000000000
    0.0000000000    9.2520101550    0.0000000000
   -1.8365557700    0.0000000000   10.0714088860
 PRIMCOORD
          40           1
 19      0.0000000000     4.4896633440     0.0000000000     0.0000000000    -0.0007237300     0.0000000000
 19      2.6637003760     0.1148402850     0.0000000000     0.0000000000     0.0007491000     0.0000000000
 12     -0.9182786520     0.0312952260     5.0357050670     0.0000000000     0.0002531200     0.0000000000
 12     -0.9182786520     3.0687779320     5.0357050670     0.0000000000     0.0000867000     0.0000000000
 12     -0.9182786520     6.1649505890     5.0357050670     0.0000000000     0.0000365000     0.0000000000
 12      1.7454217240     4.5763240500     5.0357050670     0.0000000000    -0.0003589900     0.0000000000
 12      1.7454217240     7.7087243440     5.0357050670     0.0000000000    -0.0001993700     0.0000000000
 12      1.7454217240     1.6082231580     5.0357050670     0.0000000000     0.0003263600     0.0000000000
 14      0.0208119480     1.5229225370     2.2434544090    -0.0000980800    -0.0002473000     0.0001915300
 14      3.4700316450     1.5229225370     7.8279551310     0.0000980800    -0.0002473000    -0.0001915300
 14      3.5537768240     7.7143001860     7.7707406530     0.0000220500     0.0000410300     0.0000016600
 14     -0.0629334190     7.7143001860     2.3006694810    -0.0000220500     0.0000410300    -0.0000016600
 14      2.5979401850     6.1659892160     2.2779365300    -0.0000054800     0.0001322200     0.0000400800
 14      0.8929032630     6.1659892160     7.7934736040     0.0000054800     0.0001322200    -0.0000400800
 13      0.8008724500     3.0666898700     7.8061058480    -0.0000094100     0.0001309700     0.0003428600
 13      2.6899711080     3.0666898700     2.2653036820     0.0000094100     0.0001309700    -0.0003428600
  8     -0.0285728010     1.5025745010     3.8937030370    -0.0000275300    -0.0000258900     0.0006091000
  8      3.5194159610     1.5025745010     6.1777073900     0.0000275300    -0.0000258900    -0.0006091000
  8      3.5382745710     7.7030770750     6.1371593280    -0.0000237300     0.0000824800    -0.0006055600
  8     -0.0474312830     7.7030770750     3.9342508060     0.0000237300     0.0000824800     0.0006055600
  8      2.6180300980     6.1939435740     3.9200130550    -0.0000026500    -0.0002343600     0.0005548100
  8      0.8728129810     6.1939435740     6.1513973810     0.0000026500    -0.0002343600    -0.0005548100
  8      0.8115280890     3.0943873160     6.0586975080    -0.0000541200     0.0000222600    -0.0000309200
  8      2.6793153590     3.0943873160     4.0127126260     0.0000541200     0.0000222600     0.0000309200
  8      1.4627033520     1.9659716820     1.6661450550    -0.0001436800     0.0001756100    -0.0002126100
  8      2.0281401450     1.9659716820     8.4052656830     0.0001436800     0.0001756100     0.0002126100
  8     -0.2588893430     9.2178574490     1.6997993150    -0.0001368700    -0.0001444800    -0.0001771500
  8      3.7497331660     9.2178574490     8.3716105170     0.0001368700    -0.0001444800     0.0001771500
  8      2.1324124430     7.1217810770     8.3533768530    -0.0000012800    -0.0000781300     0.0002675700
  8      1.3584313740     7.1217810770     1.7180329790     0.0000012800    -0.0000781300    -0.0002675700
  8      4.0149366990     6.8209232380     1.7097875480    -0.0000501600    -0.0001406900    -0.0002209500
  8     -0.5240931440     6.8209232380     8.3616224350     0.0000501600    -0.0001406900     0.0002209500
  8      2.4184727260     4.7011431780     1.6412110360    -0.0001270200     0.0001240400    -0.0001855500
  8      1.0723708820     4.7011431780     8.4301990980     0.0001270200     0.0001240400     0.0001855500
  8     -0.7142216230     2.4743787650     8.4595411490     0.0000213600    -0.0000552200     0.0001696500
  8      4.2050652030     2.4743787650     1.6118691360    -0.0000213600    -0.0000552200    -0.0001696500
  9     -0.0363237660     4.6836847320     4.0195677260    -0.0001285600     0.0001234900     0.0002014500
  9      3.5271673740     4.6836847320     6.0518424080     0.0001285600     0.0001234900    -0.0002014500
  9      2.6366644090     9.2366684240     4.0636160490    -0.0000742200     0.0000091200     0.0004159400
  9      0.8541789840     9.2366684240     6.0077943880     0.0000742200     0.0000091200    -0.0004159400
 CONVCOORD
          40           1
 19      0.0000000000     4.4896633440     0.0000000000
 19      2.6637003760     0.1148402850     0.0000000000
 12     -0.9182786520     0.0312952260     5.0357050670
 12     -0.9182786520     3.0687779320     5.0357050670
 12     -0.9182786520     6.1649505890     5.0357050670
 12      1.7454217240     4.5763240500     5.0357050670
 12      1.7454217240     7.7087243440     5.0357050670
 12      1.7454217240     1.6082231580     5.0357050670
 14      0.0208119480     1.5229225370     2.2434544090
 14      3.4700316450     1.5229225370     7.8279551310
 14      3.5537768240     7.7143001860     7.7707406530
 14     -0.0629334190     7.7143001860     2.3006694810
 14      2.5979401850     6.1659892160     2.2779365300
 14      0.8929032630     6.1659892160     7.7934736040
 13      0.8008724500     3.0666898700     7.8061058480
 13      2.6899711080     3.0666898700     2.2653036820
  8     -0.0285728010     1.5025745010     3.8937030370
  8      3.5194159610     1.5025745010     6.1777073900
  8      3.5382745710     7.7030770750     6.1371593280
  8     -0.0474312830     7.7030770750     3.9342508060
  8      2.6180300980     6.1939435740     3.9200130550
  8      0.8728129810     6.1939435740     6.1513973810
  8      0.8115280890     3.0943873160     6.0586975080
  8      2.6793153590     3.0943873160     4.0127126260
  8      1.4627033520     1.9659716820     1.6661450550
  8      2.0281401450     1.9659716820     8.4052656830
  8     -0.2588893430     9.2178574490     1.6997993150
  8      3.7497331660     9.2178574490     8.3716105170
  8      2.1324124430     7.1217810770     8.3533768530
  8      1.3584313740     7.1217810770     1.7180329790
  8      4.0149366990     6.8209232380     1.7097875480
  8     -0.5240931440     6.8209232380     8.3616224350
  8      2.4184727260     4.7011431780     1.6412110360
  8      1.0723708820     4.7011431780     8.4301990980
  8     -0.7142216230     2.4743787650     8.4595411490
  8      4.2050652030     2.4743787650     1.6118691360
  9     -0.0363237660     4.6836847320     4.0195677260
  9      3.5271673740     4.6836847320     6.0518424080
  9      2.6366644090     9.2366684240     4.0636160490
  9      0.8541789840     9.2366684240     6.0077943880
 RECIP-PRIMVEC
    0.1877087116   -0.0000000000    0.0342293240

    0.0000000000    0.1080846198   -0.0000000000

    0.0000000000    0.0000000000    0.0992909742

 RECIP-CONVVEC
    0.1877087116   -0.0000000000    0.0342293240

    0.0000000000    0.1080846198   -0.0000000000

    0.0000000000    0.0000000000    0.0992909742

 WIGNER-SEITZ-PRIMCELL
           4
 -0.2663702E+01  0.4626005E+01 -0.4717420E+01  -0.3274951E+00 -0.1242670E-15 -0.9448529E+00
 -0.8271459E+00  0.4626005E+01 -0.5353988E+01  -0.3274951E+00 -0.1242670E-15 -0.9448529E+00
 -0.8271459E+00 -0.4626005E+01 -0.5353988E+01  -0.3274951E+00 -0.1242670E-15 -0.9448529E+00
 -0.2663702E+01 -0.4626005E+01 -0.4717420E+01  -0.3274951E+00 -0.1242670E-15 -0.9448529E+00
           4
 -0.2663702E+01  0.4626005E+01  0.4717420E+01  -0.1000000E+01  0.4799921E-16 -0.4706907E-16
 -0.2663702E+01  0.4626005E+01 -0.4717420E+01  -0.1000000E+01  0.4799921E-16 -0.4706907E-16
 -0.2663702E+01 -0.4626005E+01 -0.4717420E+01  -0.1000000E+01  0.4799921E-16 -0.4706907E-16
 -0.2663702E+01 -0.4626005E+01  0.4717420E+01  -0.1000000E+01  0.4799921E-16 -0.4706907E-16
           6
  0.2663702E+01 -0.4626005E+01  0.4717420E+01  -0.0000000E+00 -0.1000000E+01  0.5238053E-15
  0.8271459E+00 -0.4626005E+01  0.5353988E+01  -0.0000000E+00 -0.1000000E+01  0.5238053E-15
 -0.2663702E+01 -0.4626005E+01  0.4717420E+01  -0.0000000E+00 -0.1000000E+01  0.5238053E-15
 -0.2663702E+01 -0.4626005E+01 -0.4717420E+01  -0.0000000E+00 -0.1000000E+01  0.5238053E-15
 -0.8271459E+00 -0.4626005E+01 -0.5353988E+01  -0.0000000E+00 -0.1000000E+01  0.5238053E-15
  0.2663702E+01 -0.4626005E+01 -0.4717420E+01  -0.0000000E+00 -0.1000000E+01  0.5238053E-15
           4
  0.2663702E+01  0.4626005E+01 -0.4717420E+01   0.1793951E+00  0.0000000E+00 -0.9837771E+00
  0.2663702E+01 -0.4626005E+01 -0.4717420E+01   0.1793951E+00  0.0000000E+00 -0.9837771E+00
 -0.8271459E+00 -0.4626005E+01 -0.5353988E+01   0.1793951E+00  0.0000000E+00 -0.9837771E+00
 -0.8271459E+00  0.4626005E+01 -0.5353988E+01   0.1793951E+00  0.0000000E+00 -0.9837771E+00
           4
  0.8271459E+00  0.4626005E+01  0.5353988E+01  -0.1793951E+00 -0.1676402E-17  0.9837771E+00
 -0.2663702E+01  0.4626005E+01  0.4717420E+01  -0.1793951E+00 -0.1676402E-17  0.9837771E+00
 -0.2663702E+01 -0.4626005E+01  0.4717420E+01  -0.1793951E+00 -0.1676402E-17  0.9837771E+00
  0.8271459E+00 -0.4626005E+01  0.5353988E+01  -0.1793951E+00 -0.1676402E-17  0.9837771E+00
           6
  0.2663702E+01  0.4626005E+01 -0.4717420E+01   0.1667188E-15  0.1000000E+01  0.1571416E-14
 -0.8271459E+00  0.4626005E+01 -0.5353988E+01   0.1667188E-15  0.1000000E+01  0.1571416E-14
 -0.2663702E+01  0.4626005E+01 -0.4717420E+01   0.1667188E-15  0.1000000E+01  0.1571416E-14
 -0.2663702E+01  0.4626005E+01  0.4717420E+01   0.1667188E-15  0.1000000E+01  0.1571416E-14
  0.8271459E+00  0.4626005E+01  0.5353988E+01   0.1667188E-15  0.1000000E+01  0.1571416E-14
  0.2663702E+01  0.4626005E+01  0.4717420E+01   0.1667188E-15  0.1000000E+01  0.1571416E-14
           4
  0.2663702E+01  0.4626005E+01  0.4717420E+01   0.1000000E+01 -0.4799921E-16  0.0000000E+00
  0.2663702E+01 -0.4626005E+01  0.4717420E+01   0.1000000E+01 -0.4799921E-16  0.0000000E+00
  0.2663702E+01 -0.4626005E+01 -0.4717420E+01   0.1000000E+01 -0.4799921E-16  0.0000000E+00
  0.2663702E+01  0.4626005E+01 -0.4717420E+01   0.1000000E+01 -0.4799921E-16  0.0000000E+00
           4
  0.2663702E+01 -0.4626005E+01  0.4717420E+01   0.3274951E+00 -0.2963299E-15  0.9448529E+00
  0.2663702E+01  0.4626005E+01  0.4717420E+01   0.3274951E+00 -0.2963299E-15  0.9448529E+00
  0.8271459E+00  0.4626005E+01  0.5353988E+01   0.3274951E+00 -0.2963299E-15  0.9448529E+00
  0.8271459E+00 -0.4626005E+01  0.5353988E+01   0.3274951E+00 -0.2963299E-15  0.9448529E+00
 WIGNER-SEITZ-PRIMCELL_END
 WIGNER-SEITZ-CONVCELL
           4
 -0.2663702E+01  0.4626005E+01 -0.4717420E+01  -0.3274951E+00 -0.1242670E-15 -0.9448529E+00
 -0.8271459E+00  0.4626005E+01 -0.5353988E+01  -0.3274951E+00 -0.1242670E-15 -0.9448529E+00
 -0.8271459E+00 -0.4626005E+01 -0.5353988E+01  -0.3274951E+00 -0.1242670E-15 -0.9448529E+00
 -0.2663702E+01 -0.4626005E+01 -0.4717420E+01  -0.3274951E+00 -0.1242670E-15 -0.9448529E+00
           4
 -0.2663702E+01  0.4626005E+01  0.4717420E+01  -0.1000000E+01  0.4799921E-16 -0.4706907E-16
 -0.2663702E+01  0.4626005E+01 -0.4717420E+01  -0.1000000E+01  0.4799921E-16 -0.4706907E-16
 -0.2663702E+01 -0.4626005E+01 -0.4717420E+01  -0.1000000E+01  0.4799921E-16 -0.4706907E-16
 -0.2663702E+01 -0.4626005E+01  0.4717420E+01  -0.1000000E+01  0.4799921E-16 -0.4706907E-16
           6
  0.2663702E+01 -0.4626005E+01  0.4717420E+01  -0.0000000E+00 -0.1000000E+01  0.5238053E-15
  0.8271459E+00 -0.4626005E+01  0.5353988E+01  -0.0000000E+00 -0.1000000E+01  0.5238053E-15
 -0.2663702E+01 -0.4626005E+01  0.4717420E+01  -0.0000000E+00 -0.1000000E+01  0.5238053E-15
 -0.2663702E+01 -0.4626005E+01 -0.4717420E+01  -0.0000000E+00 -0.1000000E+01  0.5238053E-15
 -0.8271459E+00 -0.4626005E+01 -0.5353988E+01  -0.0000000E+00 -0.1000000E+01  0.5238053E-15
  0.2663702E+01 -0.4626005E+01 -0.4717420E+01  -0.0000000E+00 -0.1000000E+01  0.5238053E-15
           4
  0.2663702E+01  0.4626005E+01 -0.4717420E+01   0.1793951E+00  0.0000000E+00 -0.9837771E+00
  0.2663702E+01 -0.4626005E+01 -0.4717420E+01   0.1793951E+00  0.0000000E+00 -0.9837771E+00
 -0.8271459E+00 -0.4626005E+01 -0.5353988E+01   0.1793951E+00  0.0000000E+00 -0.9837771E+00
 -0.8271459E+00  0.4626005E+01 -0.5353988E+01   0.1793951E+00  0.0000000E+00 -0.9837771E+00
           4
  0.8271459E+00  0.4626005E+01  0.5353988E+01  -0.1793951E+00 -0.1676402E-17  0.9837771E+00
 -0.2663702E+01  0.4626005E+01  0.4717420E+01  -0.1793951E+00 -0.1676402E-17  0.9837771E+00
 -0.2663702E+01 -0.4626005E+01  0.4717420E+01  -0.1793951E+00 -0.1676402E-17  0.9837771E+00
  0.8271459E+00 -0.4626005E+01  0.5353988E+01  -0.1793951E+00 -0.1676402E-17  0.9837771E+00
           6
  0.2663702E+01  0.4626005E+01 -0.4717420E+01   0.1667188E-15  0.1000000E+01  0.1571416E-14
 -0.8271459E+00  0.4626005E+01 -0.5353988E+01   0.1667188E-15  0.1000000E+01  0.1571416E-14
 -0.2663702E+01  0.4626005E+01 -0.4717420E+01   0.1667188E-15  0.1000000E+01  0.1571416E-14
 -0.2663702E+01  0.4626005E+01  0.4717420E+01   0.1667188E-15  0.1000000E+01  0.1571416E-14
  0.8271459E+00  0.4626005E+01  0.5353988E+01   0.1667188E-15  0.1000000E+01  0.1571416E-14
  0.2663702E+01  0.4626005E+01  0.4717420E+01   0.1667188E-15  0.1000000E+01  0.1571416E-14
           4
  0.2663702E+01  0.4626005E+01  0.4717420E+01   0.1000000E+01 -0.4799921E-16  0.0000000E+00
  0.2663702E+01 -0.4626005E+01  0.4717420E+01   0.1000000E+01 -0.4799921E-16  0.0000000E+00
  0.2663702E+01 -0.4626005E+01 -0.4717420E+01   0.1000000E+01 -0.4799921E-16  0.0000000E+00
  0.2663702E+01  0.4626005E+01 -0.4717420E+01   0.1000000E+01 -0.4799921E-16  0.0000000E+00
           4
  0.2663702E+01 -0.4626005E+01  0.4717420E+01   0.3274951E+00 -0.2963299E-15  0.9448529E+00
  0.2663702E+01  0.4626005E+01  0.4717420E+01   0.3274951E+00 -0.2963299E-15  0.9448529E+00
  0.8271459E+00  0.4626005E+01  0.5353988E+01   0.3274951E+00 -0.2963299E-15  0.9448529E+00
  0.8271459E+00 -0.4626005E+01  0.5353988E+01   0.3274951E+00 -0.2963299E-15  0.9448529E+00
 WIGNER-SEITZ-CONVCELL_END
 BRILLOUIN-ZONE-PRIMCELL
           4
  0.9978646E-01  0.5404231E-01 -0.1541616E-01   0.9448529E+00 -0.2768932E-16 -0.3274951E+00
  0.9978646E-01 -0.5404231E-01 -0.1541616E-01   0.9448529E+00 -0.2768932E-16 -0.3274951E+00
  0.8792225E-01 -0.5404231E-01 -0.4964549E-01   0.9448529E+00 -0.2768932E-16 -0.3274951E+00
  0.8792225E-01  0.5404231E-01 -0.4964549E-01   0.9448529E+00 -0.2768932E-16 -0.3274951E+00
           4
 -0.8792225E-01 -0.5404231E-01 -0.4964549E-01   0.4563600E-16  0.0000000E+00 -0.1000000E+01
 -0.8792225E-01  0.5404231E-01 -0.4964549E-01   0.4563600E-16  0.0000000E+00 -0.1000000E+01
  0.8792225E-01  0.5404231E-01 -0.4964549E-01   0.4563600E-16  0.0000000E+00 -0.1000000E+01
  0.8792225E-01 -0.5404231E-01 -0.4964549E-01   0.4563600E-16  0.0000000E+00 -0.1000000E+01
           6
  0.8792225E-01 -0.5404231E-01  0.4964549E-01  -0.0000000E+00 -0.1000000E+01  0.2882061E-15
 -0.8792225E-01 -0.5404231E-01  0.4964549E-01  -0.0000000E+00 -0.1000000E+01  0.2882061E-15
 -0.9978646E-01 -0.5404231E-01  0.1541616E-01  -0.0000000E+00 -0.1000000E+01  0.2882061E-15
 -0.8792225E-01 -0.5404231E-01 -0.4964549E-01  -0.0000000E+00 -0.1000000E+01  0.2882061E-15
  0.8792225E-01 -0.5404231E-01 -0.4964549E-01  -0.0000000E+00 -0.1000000E+01  0.2882061E-15
  0.9978646E-01 -0.5404231E-01 -0.1541616E-01  -0.0000000E+00 -0.1000000E+01  0.2882061E-15
           4
  0.8792225E-01  0.5404231E-01  0.4964549E-01   0.9837771E+00 -0.6446247E-16  0.1793951E+00
  0.8792225E-01 -0.5404231E-01  0.4964549E-01   0.9837771E+00 -0.6446247E-16  0.1793951E+00
  0.9978646E-01 -0.5404231E-01 -0.1541616E-01   0.9837771E+00 -0.6446247E-16  0.1793951E+00
  0.9978646E-01  0.5404231E-01 -0.1541616E-01   0.9837771E+00 -0.6446247E-16  0.1793951E+00
           4
 -0.8792225E-01  0.5404231E-01 -0.4964549E-01  -0.9837771E+00 -0.3488557E-15 -0.1793951E+00
 -0.8792225E-01 -0.5404231E-01 -0.4964549E-01  -0.9837771E+00 -0.3488557E-15 -0.1793951E+00
 -0.9978646E-01 -0.5404231E-01  0.1541616E-01  -0.9837771E+00 -0.3488557E-15 -0.1793951E+00
 -0.9978646E-01  0.5404231E-01  0.1541616E-01  -0.9837771E+00 -0.3488557E-15 -0.1793951E+00
           6
  0.9978646E-01  0.5404231E-01 -0.1541616E-01   0.0000000E+00  0.1000000E+01  0.2882061E-15
  0.8792225E-01  0.5404231E-01 -0.4964549E-01   0.0000000E+00  0.1000000E+01  0.2882061E-15
 -0.8792225E-01  0.5404231E-01 -0.4964549E-01   0.0000000E+00  0.1000000E+01  0.2882061E-15
 -0.9978646E-01  0.5404231E-01  0.1541616E-01   0.0000000E+00  0.1000000E+01  0.2882061E-15
 -0.8792225E-01  0.5404231E-01  0.4964549E-01   0.0000000E+00  0.1000000E+01  0.2882061E-15
  0.8792225E-01  0.5404231E-01  0.4964549E-01   0.0000000E+00  0.1000000E+01  0.2882061E-15
           4
  0.8792225E-01 -0.5404231E-01  0.4964549E-01  -0.0000000E+00 -0.0000000E+00  0.1000000E+01
  0.8792225E-01  0.5404231E-01  0.4964549E-01  -0.0000000E+00 -0.0000000E+00  0.1000000E+01
 -0.8792225E-01  0.5404231E-01  0.4964549E-01  -0.0000000E+00 -0.0000000E+00  0.1000000E+01
 -0.8792225E-01 -0.5404231E-01  0.4964549E-01  -0.0000000E+00 -0.0000000E+00  0.1000000E+01
           4
 -0.8792225E-01  0.5404231E-01  0.4964549E-01  -0.9448529E+00  0.3380656E-15  0.3274951E+00
 -0.9978646E-01  0.5404231E-01  0.1541616E-01  -0.9448529E+00  0.3380656E-15  0.3274951E+00
 -0.9978646E-01 -0.5404231E-01  0.1541616E-01  -0.9448529E+00  0.3380656E-15  0.3274951E+00
 -0.8792225E-01 -0.5404231E-01  0.4964549E-01  -0.9448529E+00  0.3380656E-15  0.3274951E+00
 BRILLOUIN-ZONE-PRIMCELL_END
 BRILLOUIN-ZONE-CONVCELL
           4
  0.9978646E-01  0.5404231E-01 -0.1541616E-01   0.9448529E+00 -0.2768932E-16 -0.3274951E+00
  0.9978646E-01 -0.5404231E-01 -0.1541616E-01   0.9448529E+00 -0.2768932E-16 -0.3274951E+00
  0.8792225E-01 -0.5404231E-01 -0.4964549E-01   0.9448529E+00 -0.2768932E-16 -0.3274951E+00
  0.8792225E-01  0.5404231E-01 -0.4964549E-01   0.9448529E+00 -0.2768932E-16 -0.3274951E+00
           4
 -0.8792225E-01 -0.5404231E-01 -0.4964549E-01   0.4563600E-16  0.0000000E+00 -0.1000000E+01
 -0.8792225E-01  0.5404231E-01 -0.4964549E-01   0.4563600E-16  0.0000000E+00 -0.1000000E+01
  0.8792225E-01  0.5404231E-01 -0.4964549E-01   0.4563600E-16  0.0000000E+00 -0.1000000E+01
  0.8792225E-01 -0.5404231E-01 -0.4964549E-01   0.4563600E-16  0.0000000E+00 -0.1000000E+01
           6
  0.8792225E-01 -0.5404231E-01  0.4964549E-01  -0.0000000E+00 -0.1000000E+01  0.2882061E-15
 -0.8792225E-01 -0.5404231E-01  0.4964549E-01  -0.0000000E+00 -0.1000000E+01  0.2882061E-15
 -0.9978646E-01 -0.5404231E-01  0.1541616E-01  -0.0000000E+00 -0.1000000E+01  0.2882061E-15
 -0.8792225E-01 -0.5404231E-01 -0.4964549E-01  -0.0000000E+00 -0.1000000E+01  0.2882061E-15
  0.8792225E-01 -0.5404231E-01 -0.4964549E-01  -0.0000000E+00 -0.1000000E+01  0.2882061E-15
  0.9978646E-01 -0.5404231E-01 -0.1541616E-01  -0.0000000E+00 -0.1000000E+01  0.2882061E-15
           4
  0.8792225E-01  0.5404231E-01  0.4964549E-01   0.9837771E+00 -0.6446247E-16  0.1793951E+00
  0.8792225E-01 -0.5404231E-01  0.4964549E-01   0.9837771E+00 -0.6446247E-16  0.1793951E+00
  0.9978646E-01 -0.5404231E-01 -0.1541616E-01   0.9837771E+00 -0.6446247E-16  0.1793951E+00
  0.9978646E-01  0.5404231E-01 -0.1541616E-01   0.9837771E+00 -0.6446247E-16  0.1793951E+00
           4
 -0.8792225E-01  0.5404231E-01 -0.4964549E-01  -0.9837771E+00 -0.3488557E-15 -0.1793951E+00
 -0.8792225E-01 -0.5404231E-01 -0.4964549E-01  -0.9837771E+00 -0.3488557E-15 -0.1793951E+00
 -0.9978646E-01 -0.5404231E-01  0.1541616E-01  -0.9837771E+00 -0.3488557E-15 -0.1793951E+00
 -0.9978646E-01  0.5404231E-01  0.1541616E-01  -0.9837771E+00 -0.3488557E-15 -0.1793951E+00
           6
  0.9978646E-01  0.5404231E-01 -0.1541616E-01   0.0000000E+00  0.1000000E+01  0.2882061E-15
  0.8792225E-01  0.5404231E-01 -0.4964549E-01   0.0000000E+00  0.1000000E+01  0.2882061E-15
 -0.8792225E-01  0.5404231E-01 -0.4964549E-01   0.0000000E+00  0.1000000E+01  0.2882061E-15
 -0.9978646E-01  0.5404231E-01  0.1541616E-01   0.0000000E+00  0.1000000E+01  0.2882061E-15
 -0.8792225E-01  0.5404231E-01  0.4964549E-01   0.0000000E+00  0.1000000E+01  0.2882061E-15
  0.8792225E-01  0.5404231E-01  0.4964549E-01   0.0000000E+00  0.1000000E+01  0.2882061E-15
           4
  0.8792225E-01 -0.5404231E-01  0.4964549E-01  -0.0000000E+00 -0.0000000E+00  0.1000000E+01
  0.8792225E-01  0.5404231E-01  0.4964549E-01  -0.0000000E+00 -0.0000000E+00  0.1000000E+01
 -0.8792225E-01  0.5404231E-01  0.4964549E-01  -0.0000000E+00 -0.0000000E+00  0.1000000E+01
 -0.8792225E-01 -0.5404231E-01  0.4964549E-01  -0.0000000E+00 -0.0000000E+00  0.1000000E+01
           4
 -0.8792225E-01  0.5404231E-01  0.4964549E-01  -0.9448529E+00  0.3380656E-15  0.3274951E+00
 -0.9978646E-01  0.5404231E-01  0.1541616E-01  -0.9448529E+00  0.3380656E-15  0.3274951E+00
 -0.9978646E-01 -0.5404231E-01  0.1541616E-01  -0.9448529E+00  0.3380656E-15  0.3274951E+00
 -0.8792225E-01 -0.5404231E-01  0.4964549E-01  -0.9448529E+00  0.3380656E-15  0.3274951E+00
 BRILLOUIN-ZONE-CONVCELL_END
 ATOMS
   19    0.0000000000    4.4896633440    0.0000000000    0.0000000000   -0.0007237300    0.0000000000
   19    2.6637003760    0.1148402850    0.0000000000    0.0000000000    0.0007491000    0.0000000000
   12   -0.9182786520    0.0312952260    5.0357050670    0.0000000000    0.0002531200    0.0000000000
   12   -0.9182786520    3.0687779320    5.0357050670    0.0000000000    0.0000867000    0.0000000000
   12   -0.9182786520    6.1649505890    5.0357050670    0.0000000000    0.0000365000    0.0000000000
   12    1.7454217240    4.5763240500    5.0357050670    0.0000000000   -0.0003589900    0.0000000000
   12    1.7454217240    7.7087243440    5.0357050670    0.0000000000   -0.0001993700    0.0000000000
   12    1.7454217240    1.6082231580    5.0357050670    0.0000000000    0.0003263600    0.0000000000
   14    0.0208119480    1.5229225370    2.2434544090   -0.0000980800   -0.0002473000    0.0001915300
   14    3.4700316450    1.5229225370    7.8279551310    0.0000980800   -0.0002473000   -0.0001915300
   14    3.5537768240    7.7143001860    7.7707406530    0.0000220500    0.0000410300    0.0000016600
   14   -0.0629334190    7.7143001860    2.3006694810   -0.0000220500    0.0000410300   -0.0000016600
   14    2.5979401850    6.1659892160    2.2779365300   -0.0000054800    0.0001322200    0.0000400800
   14    0.8929032630    6.1659892160    7.7934736040    0.0000054800    0.0001322200   -0.0000400800
   13    0.8008724500    3.0666898700    7.8061058480   -0.0000094100    0.0001309700    0.0003428600
   13    2.6899711080    3.0666898700    2.2653036820    0.0000094100    0.0001309700   -0.0003428600
    8   -0.0285728010    1.5025745010    3.8937030370   -0.0000275300   -0.0000258900    0.0006091000
    8    3.5194159610    1.5025745010    6.1777073900    0.0000275300   -0.0000258900   -0.0006091000
    8    3.5382745710    7.7030770750    6.1371593280   -0.0000237300    0.0000824800   -0.0006055600
    8   -0.0474312830    7.7030770750    3.9342508060    0.0000237300    0.0000824800    0.0006055600
    8    2.6180300980    6.1939435740    3.9200130550   -0.0000026500   -0.0002343600    0.0005548100
    8    0.8728129810    6.1939435740    6.1513973810    0.0000026500   -0.0002343600   -0.0005548100
    8    0.8115280890    3.0943873160    6.0586975080   -0.0000541200    0.0000222600   -0.0000309200
    8    2.6793153590    3.0943873160    4.0127126260    0.0000541200    0.0000222600    0.0000309200
    8    1.4627033520    1.9659716820    1.6661450550   -0.0001436800    0.0001756100   -0.0002126100
    8    2.0281401450    1.9659716820    8.4052656830    0.0001436800    0.0001756100    0.0002126100
    8   -0.2588893430    9.2178574490    1.6997993150   -0.0001368700   -0.0001444800   -0.0001771500
    8    3.7497331660    9.2178574490    8.3716105170    0.0001368700   -0.0001444800    0.0001771500
    8    2.1324124430    7.1217810770    8.3533768530   -0.0000012800   -0.0000781300    0.0002675700
    8    1.3584313740    7.1217810770    1.7180329790    0.0000012800   -0.0000781300   -0.0002675700
    8    4.0149366990    6.8209232380    1.7097875480   -0.0000501600   -0.0001406900   -0.0002209500
    8   -0.5240931440    6.8209232380    8.3616224350    0.0000501600   -0.0001406900    0.0002209500
    8    2.4184727260    4.7011431780    1.6412110360   -0.0001270200    0.0001240400   -0.0001855500
    8    1.0723708820    4.7011431780    8.4301990980    0.0001270200    0.0001240400    0.0001855500
    8   -0.7142216230    2.4743787650    8.4595411490    0.0000213600   -0.0000552200    0.0001696500
    8    4.2050652030    2.4743787650    1.6118691360   -0.0000213600   -0.0000552200   -0.0001696500
    9   -0.0363237660    4.6836847320    4.0195677260   -0.0001285600    0.0001234900    0.0002014500
    9    3.5271673740    4.6836847320    6.0518424080    0.0001285600    0.0001234900   -0.0002014500
    9    2.6366644090    9.2366684240    4.0636160490   -0.0000742200    0.0000091200    0.0004159400
    9    0.8541789840    9.2366684240    6.0077943880    0.0000742200    0.0000091200   -0.0004159400
   19   -1.8365557700    4.4896633440   10.0714088860    0.0000000000   -0.0007237300    0.0000000000
   19    0.8271446060    0.1148402850   10.0714088860    0.0000000000    0.0007491000    0.0000000000
   19    5.3274032480    4.4896633440    0.0000000000    0.0000000000   -0.0007237300    0.0000000000
   12    4.4091245960    0.0312952260    5.0357050670    0.0000000000    0.0002531200    0.0000000000
   12    4.4091245960    3.0687779320    5.0357050670    0.0000000000    0.0000867000    0.0000000000
   12    4.4091245960    6.1649505890    5.0357050670    0.0000000000    0.0000365000    0.0000000000
   19    3.4908474780    4.4896633440   10.0714088860    0.0000000000   -0.0007237300    0.0000000000
 FRAMES
1      0.0000000000    0.0000000000    0.0000000000      5.3274032480    0.0000000000    0.0000000000
1      0.0000000000    0.0000000000    0.0000000000      0.0000000000    9.2520101550    0.0000000000
1      0.0000000000    0.0000000000    0.0000000000     -1.8365557700    0.0000000000   10.0714088860
1     -1.8365557700    0.0000000000   10.0714088860      3.4908474780    0.0000000000   10.0714088860
1     -1.8365557700    0.0000000000   10.0714088860     -1.8365557700    9.2520101550   10.0714088860
1      0.0000000000    9.2520101550    0.0000000000      5.3274032480    9.2520101550    0.0000000000
1      0.0000000000    9.2520101550    0.0000000000     -1.8365557700    9.2520101550   10.0714088860
1     -1.8365557700    9.2520101550   10.0714088860      3.4908474780    9.2520101550   10.0714088860
1      5.3274032480    0.0000000000    0.0000000000      5.3274032480    9.2520101550    0.0000000000
1      5.3274032480    0.0000000000    0.0000000000      3.4908474780    0.0000000000   10.0714088860
1      3.4908474780    0.0000000000   10.0714088860      3.4908474780    9.2520101550   10.0714088860
1      5.3274032480    9.2520101550    0.0000000000      3.4908474780    9.2520101550   10.0714088860
