 INFO
nunit      1    1    1
unit   cell
celltype   primcell
shape   parapipedal
 END_INFO
 DIM-GROUP
           3           1
 PRIMVEC
    5.3085327230    0.0000000000    0.0000000000
    0.0000000000    9.2005073420    0.0000000000
   -1.8333560550    0.0000000000   10.2287648170
 CONVVEC
    5.3085327230    0.0000000000    0.0000000000
    0.0000000000    9.2005073420    0.0000000000
   -1.8333560550    0.0000000000   10.2287648170
 PRIMCOORD
          43           1
 19      0.0000000000     4.5818482040     0.0000000000     0.0000000000     0.0003199700     0.0000000000
 19      2.6542658640     0.0070003030     0.0000000000     0.0000000000    -0.0005036300     0.0000000000
 12     -0.9166761420     8.9833950100     5.1143819100     0.0000000000     0.0004436600     0.0000000000
 12      1.7375897160     4.6392181270     5.1143819100     0.0000000000    -0.0000385400     0.0000000000
 12      1.7375897160     7.5461488760     5.1143819100     0.0000000000     0.0005027500     0.0000000000
 12      1.7375897160     1.4701736750     5.1143819100     0.0000000000     0.0000400200     0.0000000000
 14      0.0043176230     1.5042550020     2.2991715730     0.0003551000    -0.0002080900    -0.0002307200
 14      3.4708619410     1.5042550020     7.9295924000    -0.0003551000    -0.0002080900     0.0002307200
 14      3.5546077480     7.6444532080     7.8719500700     0.0000464800    -0.0001855200     0.0002019500
 14     -0.0794283770     7.6444532080     2.3568134430    -0.0000464800    -0.0001855200    -0.0002019500
 14      2.5314295140     6.1092300570     2.3045824830    -0.0000952500     0.0004127600    -0.0002902900
 14      0.9437498140     6.1092300570     7.9241810300     0.0000952500     0.0004127600     0.0002902900
 13      0.7834595210     3.0486108310     7.9414931730    -0.0000234300    -0.0001131200     0.0000582600
 13      2.6917197250     3.0486108310     2.2872708000     0.0000234300    -0.0001131200    -0.0000582600
  8     -0.0732235340     1.5728707630     3.9677557560     0.0001642000    -0.0000482600    -0.0008395500
  8      3.5484029480     1.5728707630     6.2610077580    -0.0001642000    -0.0000482600     0.0008395500
  8      3.4493434070     7.6566435620     6.2797105170     0.0001529200    -0.0003092400     0.0008094000
  8      0.0258362150     7.6566435620     3.9490526900    -0.0001529200    -0.0003092400    -0.0008094000
  8      2.4831332760     6.0661649910     3.9099200950     0.0002811500     0.0004828900    -0.0006455800
  8      0.9920461560     6.0661649910     6.3188437250    -0.0002811500     0.0004828900     0.0006455800
  8      0.7473428860     3.0224043030     6.1436598130     0.0003797900    -0.0001813300    -0.0001218900
  8      2.7278369700     3.0224043030     4.0851033930    -0.0003797900    -0.0001813300     0.0001218900
  8      1.5032875560     1.8517950630     1.7933727030     0.0003054000    -0.0004212100     0.0003238700
  8      1.9718917010     1.8517950630     8.4353903490    -0.0003054000    -0.0004212100    -0.0003238700
  8      4.9693098970     9.1695333040     1.7649206680     0.0001268200    -0.0002023500     0.0003090800
  8     -1.4941304370     9.1695333040     8.4638429990    -0.0001268200    -0.0002023500    -0.0003090800
  8      2.1519592310     7.0820494390     8.5613889490     0.0001638300     0.0000632000     0.0001292800
  8      1.3232200500     7.0820494390     1.6673748610    -0.0001638300     0.0000632000    -0.0001292800
  8      3.9683516790     6.7582244740     1.7560615140     0.0000534400    -0.0002064300     0.0004930500
  8     -0.4931721120     6.7582244740     8.4727024490    -0.0000534400    -0.0002064300    -0.0004930500
  8      2.3675057130     4.6391399090     1.6325618870     0.0002091400     0.0001788600     0.0002201200
  8      1.1076733460     4.6391399090     8.5962022400    -0.0002091400     0.0001788600    -0.0002201200
  8     -0.7422907370     2.4857518250     8.5961659770     0.0001107400    -0.0000719800    -0.0001523100
  8      4.2174703040     2.4857518250     1.6325975370    -0.0001107400    -0.0000719800     0.0001523100
  8     -0.0778751740     4.4465828180     4.0322121780     0.0007178600    -0.0002797900     0.0001089300
  8      3.5530547430     4.4465828180     6.1965513250    -0.0007178600    -0.0002797900    -0.0001089300
  8      2.6401656020     9.1638317180     4.0991571490    -0.0001130800     0.0004707300     0.0000779300
  8      0.8350140960     9.1638317180     6.1296069670     0.0001130800     0.0004707300    -0.0000779300
  1     -0.5352839490     5.3147686970     3.9874620770     0.0001317500     0.0000715800     0.0003166900
  1      4.0104639270     5.3147686970     6.2413011290    -0.0001317500     0.0000715800    -0.0003166900
  1      2.6328788800     0.0439841670     3.1357526790    -0.0000380700    -0.0000562200     0.0001498800
  1      0.8423006520     0.0439841670     7.0930114480     0.0000380700    -0.0000562200    -0.0001498800
 22     -0.9166761420     3.1022392980     5.1143819100     0.0000000000     0.0004427800     0.0000000000
 CONVCOORD
          43           1
 19      0.0000000000     4.5818482040     0.0000000000
 19      2.6542658640     0.0070003030     0.0000000000
 12     -0.9166761420     8.9833950100     5.1143819100
 12      1.7375897160     4.6392181270     5.1143819100
 12      1.7375897160     7.5461488760     5.1143819100
 12      1.7375897160     1.4701736750     5.1143819100
 14      0.0043176230     1.5042550020     2.2991715730
 14      3.4708619410     1.5042550020     7.9295924000
 14      3.5546077480     7.6444532080     7.8719500700
 14     -0.0794283770     7.6444532080     2.3568134430
 14      2.5314295140     6.1092300570     2.3045824830
 14      0.9437498140     6.1092300570     7.9241810300
 13      0.7834595210     3.0486108310     7.9414931730
 13      2.6917197250     3.0486108310     2.2872708000
  8     -0.0732235340     1.5728707630     3.9677557560
  8      3.5484029480     1.5728707630     6.2610077580
  8      3.4493434070     7.6566435620     6.2797105170
  8      0.0258362150     7.6566435620     3.9490526900
  8      2.4831332760     6.0661649910     3.9099200950
  8      0.9920461560     6.0661649910     6.3188437250
  8      0.7473428860     3.0224043030     6.1436598130
  8      2.7278369700     3.0224043030     4.0851033930
  8      1.5032875560     1.8517950630     1.7933727030
  8      1.9718917010     1.8517950630     8.4353903490
  8      4.9693098970     9.1695333040     1.7649206680
  8     -1.4941304370     9.1695333040     8.4638429990
  8      2.1519592310     7.0820494390     8.5613889490
  8      1.3232200500     7.0820494390     1.6673748610
  8      3.9683516790     6.7582244740     1.7560615140
  8     -0.4931721120     6.7582244740     8.4727024490
  8      2.3675057130     4.6391399090     1.6325618870
  8      1.1076733460     4.6391399090     8.5962022400
  8     -0.7422907370     2.4857518250     8.5961659770
  8      4.2174703040     2.4857518250     1.6325975370
  8     -0.0778751740     4.4465828180     4.0322121780
  8      3.5530547430     4.4465828180     6.1965513250
  8      2.6401656020     9.1638317180     4.0991571490
  8      0.8350140960     9.1638317180     6.1296069670
  1     -0.5352839490     5.3147686970     3.9874620770
  1      4.0104639270     5.3147686970     6.2413011290
  1      2.6328788800     0.0439841670     3.1357526790
  1      0.8423006520     0.0439841670     7.0930114480
 22     -0.9166761420     3.1022392980     5.1143819100
 RECIP-PRIMVEC
    0.1883759698   -0.0000000000    0.0337636294

    0.0000000000    0.1086896584   -0.0000000000

    0.0000000000    0.0000000000    0.0977635147

 RECIP-CONVVEC
    0.1883759698   -0.0000000000    0.0337636294

    0.0000000000    0.1086896584   -0.0000000000

    0.0000000000    0.0000000000    0.0977635147

 WIGNER-SEITZ-PRIMCELL
           4
 -0.2654266E+01  0.4600254E+01 -0.4802945E+01  -0.3216867E+00  0.9971283E-16 -0.9468462E+00
 -0.8209103E+00  0.4600254E+01 -0.5425820E+01  -0.3216867E+00  0.9971283E-16 -0.9468462E+00
 -0.8209103E+00 -0.4600254E+01 -0.5425820E+01  -0.3216867E+00  0.9971283E-16 -0.9468462E+00
 -0.2654266E+01 -0.4600254E+01 -0.4802945E+01  -0.3216867E+00  0.9971283E-16 -0.9468462E+00
           4
 -0.2654266E+01  0.4600254E+01 -0.4802945E+01  -0.1000000E+01 -0.4826790E-16  0.8925880E-32
 -0.2654266E+01 -0.4600254E+01 -0.4802945E+01  -0.1000000E+01 -0.4826790E-16  0.8925880E-32
 -0.2654266E+01 -0.4600254E+01  0.4802945E+01  -0.1000000E+01 -0.4826790E-16  0.8925880E-32
 -0.2654266E+01  0.4600254E+01  0.4802945E+01  -0.1000000E+01 -0.4826790E-16  0.8925880E-32
           6
  0.8209103E+00 -0.4600254E+01  0.5425820E+01  -0.2555779E-15 -0.1000000E+01  0.0000000E+00
 -0.2654266E+01 -0.4600254E+01  0.4802945E+01  -0.2555779E-15 -0.1000000E+01  0.0000000E+00
 -0.2654266E+01 -0.4600254E+01 -0.4802945E+01  -0.2555779E-15 -0.1000000E+01  0.0000000E+00
 -0.8209103E+00 -0.4600254E+01 -0.5425820E+01  -0.2555779E-15 -0.1000000E+01  0.0000000E+00
  0.2654266E+01 -0.4600254E+01 -0.4802945E+01  -0.2555779E-15 -0.1000000E+01  0.0000000E+00
  0.2654266E+01 -0.4600254E+01  0.4802945E+01  -0.2555779E-15 -0.1000000E+01  0.0000000E+00
           4
  0.2654266E+01 -0.4600254E+01 -0.4802945E+01   0.1764239E+00  0.4904618E-16 -0.9843143E+00
 -0.8209103E+00 -0.4600254E+01 -0.5425820E+01   0.1764239E+00  0.4904618E-16 -0.9843143E+00
 -0.8209103E+00  0.4600254E+01 -0.5425820E+01   0.1764239E+00  0.4904618E-16 -0.9843143E+00
  0.2654266E+01  0.4600254E+01 -0.4802945E+01   0.1764239E+00  0.4904618E-16 -0.9843143E+00
           4
 -0.2654266E+01  0.4600254E+01  0.4802945E+01  -0.1764239E+00 -0.1093718E-15  0.9843143E+00
 -0.2654266E+01 -0.4600254E+01  0.4802945E+01  -0.1764239E+00 -0.1093718E-15  0.9843143E+00
  0.8209103E+00 -0.4600254E+01  0.5425820E+01  -0.1764239E+00 -0.1093718E-15  0.9843143E+00
  0.8209103E+00  0.4600254E+01  0.5425820E+01  -0.1764239E+00 -0.1093718E-15  0.9843143E+00
           6
  0.2654266E+01  0.4600254E+01 -0.4802945E+01  -0.2385753E-30  0.1000000E+01 -0.1074447E-14
 -0.8209103E+00  0.4600254E+01 -0.5425820E+01  -0.2385753E-30  0.1000000E+01 -0.1074447E-14
 -0.2654266E+01  0.4600254E+01 -0.4802945E+01  -0.2385753E-30  0.1000000E+01 -0.1074447E-14
 -0.2654266E+01  0.4600254E+01  0.4802945E+01  -0.2385753E-30  0.1000000E+01 -0.1074447E-14
  0.8209103E+00  0.4600254E+01  0.5425820E+01  -0.2385753E-30  0.1000000E+01 -0.1074447E-14
  0.2654266E+01  0.4600254E+01  0.4802945E+01  -0.2385753E-30  0.1000000E+01 -0.1074447E-14
           4
  0.2654266E+01  0.4600254E+01  0.4802945E+01   0.1000000E+01  0.4826790E-16  0.4462940E-32
  0.2654266E+01 -0.4600254E+01  0.4802945E+01   0.1000000E+01  0.4826790E-16  0.4462940E-32
  0.2654266E+01 -0.4600254E+01 -0.4802945E+01   0.1000000E+01  0.4826790E-16  0.4462940E-32
  0.2654266E+01  0.4600254E+01 -0.4802945E+01   0.1000000E+01  0.4826790E-16  0.4462940E-32
           4
  0.2654266E+01 -0.4600254E+01  0.4802945E+01   0.3216867E+00  0.1994257E-15  0.9468462E+00
  0.2654266E+01  0.4600254E+01  0.4802945E+01   0.3216867E+00  0.1994257E-15  0.9468462E+00
  0.8209103E+00  0.4600254E+01  0.5425820E+01   0.3216867E+00  0.1994257E-15  0.9468462E+00
  0.8209103E+00 -0.4600254E+01  0.5425820E+01   0.3216867E+00  0.1994257E-15  0.9468462E+00
 WIGNER-SEITZ-PRIMCELL_END
 WIGNER-SEITZ-CONVCELL
           4
 -0.2654266E+01  0.4600254E+01 -0.4802945E+01  -0.3216867E+00  0.9971283E-16 -0.9468462E+00
 -0.8209103E+00  0.4600254E+01 -0.5425820E+01  -0.3216867E+00  0.9971283E-16 -0.9468462E+00
 -0.8209103E+00 -0.4600254E+01 -0.5425820E+01  -0.3216867E+00  0.9971283E-16 -0.9468462E+00
 -0.2654266E+01 -0.4600254E+01 -0.4802945E+01  -0.3216867E+00  0.9971283E-16 -0.9468462E+00
           4
 -0.2654266E+01  0.4600254E+01 -0.4802945E+01  -0.1000000E+01 -0.4826790E-16  0.8925880E-32
 -0.2654266E+01 -0.4600254E+01 -0.4802945E+01  -0.1000000E+01 -0.4826790E-16  0.8925880E-32
 -0.2654266E+01 -0.4600254E+01  0.4802945E+01  -0.1000000E+01 -0.4826790E-16  0.8925880E-32
 -0.2654266E+01  0.4600254E+01  0.4802945E+01  -0.1000000E+01 -0.4826790E-16  0.8925880E-32
           6
  0.8209103E+00 -0.4600254E+01  0.5425820E+01  -0.2555779E-15 -0.1000000E+01  0.0000000E+00
 -0.2654266E+01 -0.4600254E+01  0.4802945E+01  -0.2555779E-15 -0.1000000E+01  0.0000000E+00
 -0.2654266E+01 -0.4600254E+01 -0.4802945E+01  -0.2555779E-15 -0.1000000E+01  0.0000000E+00
 -0.8209103E+00 -0.4600254E+01 -0.5425820E+01  -0.2555779E-15 -0.1000000E+01  0.0000000E+00
  0.2654266E+01 -0.4600254E+01 -0.4802945E+01  -0.2555779E-15 -0.1000000E+01  0.0000000E+00
  0.2654266E+01 -0.4600254E+01  0.4802945E+01  -0.2555779E-15 -0.1000000E+01  0.0000000E+00
           4
  0.2654266E+01 -0.4600254E+01 -0.4802945E+01   0.1764239E+00  0.4904618E-16 -0.9843143E+00
 -0.8209103E+00 -0.4600254E+01 -0.5425820E+01   0.1764239E+00  0.4904618E-16 -0.9843143E+00
 -0.8209103E+00  0.4600254E+01 -0.5425820E+01   0.1764239E+00  0.4904618E-16 -0.9843143E+00
  0.2654266E+01  0.4600254E+01 -0.4802945E+01   0.1764239E+00  0.4904618E-16 -0.9843143E+00
           4
 -0.2654266E+01  0.4600254E+01  0.4802945E+01  -0.1764239E+00 -0.1093718E-15  0.9843143E+00
 -0.2654266E+01 -0.4600254E+01  0.4802945E+01  -0.1764239E+00 -0.1093718E-15  0.9843143E+00
  0.8209103E+00 -0.4600254E+01  0.5425820E+01  -0.1764239E+00 -0.1093718E-15  0.9843143E+00
  0.8209103E+00  0.4600254E+01  0.5425820E+01  -0.1764239E+00 -0.1093718E-15  0.9843143E+00
           6
  0.2654266E+01  0.4600254E+01 -0.4802945E+01  -0.2385753E-30  0.1000000E+01 -0.1074447E-14
 -0.8209103E+00  0.4600254E+01 -0.5425820E+01  -0.2385753E-30  0.1000000E+01 -0.1074447E-14
 -0.2654266E+01  0.4600254E+01 -0.4802945E+01  -0.2385753E-30  0.1000000E+01 -0.1074447E-14
 -0.2654266E+01  0.4600254E+01  0.4802945E+01  -0.2385753E-30  0.1000000E+01 -0.1074447E-14
  0.8209103E+00  0.4600254E+01  0.5425820E+01  -0.2385753E-30  0.1000000E+01 -0.1074447E-14
  0.2654266E+01  0.4600254E+01  0.4802945E+01  -0.2385753E-30  0.1000000E+01 -0.1074447E-14
           4
  0.2654266E+01  0.4600254E+01  0.4802945E+01   0.1000000E+01  0.4826790E-16  0.4462940E-32
  0.2654266E+01 -0.4600254E+01  0.4802945E+01   0.1000000E+01  0.4826790E-16  0.4462940E-32
  0.2654266E+01 -0.4600254E+01 -0.4802945E+01   0.1000000E+01  0.4826790E-16  0.4462940E-32
  0.2654266E+01  0.4600254E+01 -0.4802945E+01   0.1000000E+01  0.4826790E-16  0.4462940E-32
           4
  0.2654266E+01 -0.4600254E+01  0.4802945E+01   0.3216867E+00  0.1994257E-15  0.9468462E+00
  0.2654266E+01  0.4600254E+01  0.4802945E+01   0.3216867E+00  0.1994257E-15  0.9468462E+00
  0.8209103E+00  0.4600254E+01  0.5425820E+01   0.3216867E+00  0.1994257E-15  0.9468462E+00
  0.8209103E+00 -0.4600254E+01  0.5425820E+01   0.3216867E+00  0.1994257E-15  0.9468462E+00
 WIGNER-SEITZ-CONVCELL_END
 BRILLOUIN-ZONE-PRIMCELL
           4
  0.9992351E-01  0.5434483E-01 -0.1511813E-01   0.9468462E+00  0.0000000E+00 -0.3216867E+00
  0.9992351E-01 -0.5434483E-01 -0.1511813E-01   0.9468462E+00  0.0000000E+00 -0.3216867E+00
  0.8845246E-01 -0.5434483E-01 -0.4888176E-01   0.9468462E+00  0.0000000E+00 -0.3216867E+00
  0.8845246E-01  0.5434483E-01 -0.4888176E-01   0.9468462E+00  0.0000000E+00 -0.3216867E+00
           4
 -0.8845246E-01 -0.5434483E-01 -0.4888176E-01  -0.9021985E-16 -0.1804397E-15 -0.1000000E+01
 -0.8845246E-01  0.5434483E-01 -0.4888176E-01  -0.9021985E-16 -0.1804397E-15 -0.1000000E+01
  0.8845246E-01  0.5434483E-01 -0.4888176E-01  -0.9021985E-16 -0.1804397E-15 -0.1000000E+01
  0.8845246E-01 -0.5434483E-01 -0.4888176E-01  -0.9021985E-16 -0.1804397E-15 -0.1000000E+01
           6
  0.8845246E-01 -0.5434483E-01  0.4888176E-01   0.0000000E+00 -0.1000000E+01  0.0000000E+00
 -0.8845246E-01 -0.5434483E-01  0.4888176E-01   0.0000000E+00 -0.1000000E+01  0.0000000E+00
 -0.9992351E-01 -0.5434483E-01  0.1511813E-01   0.0000000E+00 -0.1000000E+01  0.0000000E+00
 -0.8845246E-01 -0.5434483E-01 -0.4888176E-01   0.0000000E+00 -0.1000000E+01  0.0000000E+00
  0.8845246E-01 -0.5434483E-01 -0.4888176E-01   0.0000000E+00 -0.1000000E+01  0.0000000E+00
  0.9992351E-01 -0.5434483E-01 -0.1511813E-01   0.0000000E+00 -0.1000000E+01  0.0000000E+00
           4
  0.8845246E-01  0.5434483E-01  0.4888176E-01   0.9843143E+00  0.6903815E-16  0.1764239E+00
  0.8845246E-01 -0.5434483E-01  0.4888176E-01   0.9843143E+00  0.6903815E-16  0.1764239E+00
  0.9992351E-01 -0.5434483E-01 -0.1511813E-01   0.9843143E+00  0.6903815E-16  0.1764239E+00
  0.9992351E-01  0.5434483E-01 -0.1511813E-01   0.9843143E+00  0.6903815E-16  0.1764239E+00
           4
 -0.8845246E-01  0.5434483E-01 -0.4888176E-01  -0.9843143E+00 -0.4602543E-16 -0.1764239E+00
 -0.8845246E-01 -0.5434483E-01 -0.4888176E-01  -0.9843143E+00 -0.4602543E-16 -0.1764239E+00
 -0.9992351E-01 -0.5434483E-01  0.1511813E-01  -0.9843143E+00 -0.4602543E-16 -0.1764239E+00
 -0.9992351E-01  0.5434483E-01  0.1511813E-01  -0.9843143E+00 -0.4602543E-16 -0.1764239E+00
           6
  0.9992351E-01  0.5434483E-01 -0.1511813E-01   0.0000000E+00  0.1000000E+01  0.2904298E-15
  0.8845246E-01  0.5434483E-01 -0.4888176E-01   0.0000000E+00  0.1000000E+01  0.2904298E-15
 -0.8845246E-01  0.5434483E-01 -0.4888176E-01   0.0000000E+00  0.1000000E+01  0.2904298E-15
 -0.9992351E-01  0.5434483E-01  0.1511813E-01   0.0000000E+00  0.1000000E+01  0.2904298E-15
 -0.8845246E-01  0.5434483E-01  0.4888176E-01   0.0000000E+00  0.1000000E+01  0.2904298E-15
  0.8845246E-01  0.5434483E-01  0.4888176E-01   0.0000000E+00  0.1000000E+01  0.2904298E-15
           4
 -0.8845246E-01 -0.5434483E-01  0.4888176E-01   0.4510992E-16  0.9021985E-16  0.1000000E+01
  0.8845246E-01 -0.5434483E-01  0.4888176E-01   0.4510992E-16  0.9021985E-16  0.1000000E+01
  0.8845246E-01  0.5434483E-01  0.4888176E-01   0.4510992E-16  0.9021985E-16  0.1000000E+01
 -0.8845246E-01  0.5434483E-01  0.4888176E-01   0.4510992E-16  0.9021985E-16  0.1000000E+01
           4
 -0.9992351E-01  0.5434483E-01  0.1511813E-01  -0.9468462E+00 -0.1678431E-15  0.3216867E+00
 -0.9992351E-01 -0.5434483E-01  0.1511813E-01  -0.9468462E+00 -0.1678431E-15  0.3216867E+00
 -0.8845246E-01 -0.5434483E-01  0.4888176E-01  -0.9468462E+00 -0.1678431E-15  0.3216867E+00
 -0.8845246E-01  0.5434483E-01  0.4888176E-01  -0.9468462E+00 -0.1678431E-15  0.3216867E+00
 BRILLOUIN-ZONE-PRIMCELL_END
 BRILLOUIN-ZONE-CONVCELL
           4
  0.9992351E-01  0.5434483E-01 -0.1511813E-01   0.9468462E+00  0.0000000E+00 -0.3216867E+00
  0.9992351E-01 -0.5434483E-01 -0.1511813E-01   0.9468462E+00  0.0000000E+00 -0.3216867E+00
  0.8845246E-01 -0.5434483E-01 -0.4888176E-01   0.9468462E+00  0.0000000E+00 -0.3216867E+00
  0.8845246E-01  0.5434483E-01 -0.4888176E-01   0.9468462E+00  0.0000000E+00 -0.3216867E+00
           4
 -0.8845246E-01 -0.5434483E-01 -0.4888176E-01  -0.9021985E-16 -0.1804397E-15 -0.1000000E+01
 -0.8845246E-01  0.5434483E-01 -0.4888176E-01  -0.9021985E-16 -0.1804397E-15 -0.1000000E+01
  0.8845246E-01  0.5434483E-01 -0.4888176E-01  -0.9021985E-16 -0.1804397E-15 -0.1000000E+01
  0.8845246E-01 -0.5434483E-01 -0.4888176E-01  -0.9021985E-16 -0.1804397E-15 -0.1000000E+01
           6
  0.8845246E-01 -0.5434483E-01  0.4888176E-01   0.0000000E+00 -0.1000000E+01  0.0000000E+00
 -0.8845246E-01 -0.5434483E-01  0.4888176E-01   0.0000000E+00 -0.1000000E+01  0.0000000E+00
 -0.9992351E-01 -0.5434483E-01  0.1511813E-01   0.0000000E+00 -0.1000000E+01  0.0000000E+00
 -0.8845246E-01 -0.5434483E-01 -0.4888176E-01   0.0000000E+00 -0.1000000E+01  0.0000000E+00
  0.8845246E-01 -0.5434483E-01 -0.4888176E-01   0.0000000E+00 -0.1000000E+01  0.0000000E+00
  0.9992351E-01 -0.5434483E-01 -0.1511813E-01   0.0000000E+00 -0.1000000E+01  0.0000000E+00
           4
  0.8845246E-01  0.5434483E-01  0.4888176E-01   0.9843143E+00  0.6903815E-16  0.1764239E+00
  0.8845246E-01 -0.5434483E-01  0.4888176E-01   0.9843143E+00  0.6903815E-16  0.1764239E+00
  0.9992351E-01 -0.5434483E-01 -0.1511813E-01   0.9843143E+00  0.6903815E-16  0.1764239E+00
  0.9992351E-01  0.5434483E-01 -0.1511813E-01   0.9843143E+00  0.6903815E-16  0.1764239E+00
           4
 -0.8845246E-01  0.5434483E-01 -0.4888176E-01  -0.9843143E+00 -0.4602543E-16 -0.1764239E+00
 -0.8845246E-01 -0.5434483E-01 -0.4888176E-01  -0.9843143E+00 -0.4602543E-16 -0.1764239E+00
 -0.9992351E-01 -0.5434483E-01  0.1511813E-01  -0.9843143E+00 -0.4602543E-16 -0.1764239E+00
 -0.9992351E-01  0.5434483E-01  0.1511813E-01  -0.9843143E+00 -0.4602543E-16 -0.1764239E+00
           6
  0.9992351E-01  0.5434483E-01 -0.1511813E-01   0.0000000E+00  0.1000000E+01  0.2904298E-15
  0.8845246E-01  0.5434483E-01 -0.4888176E-01   0.0000000E+00  0.1000000E+01  0.2904298E-15
 -0.8845246E-01  0.5434483E-01 -0.4888176E-01   0.0000000E+00  0.1000000E+01  0.2904298E-15
 -0.9992351E-01  0.5434483E-01  0.1511813E-01   0.0000000E+00  0.1000000E+01  0.2904298E-15
 -0.8845246E-01  0.5434483E-01  0.4888176E-01   0.0000000E+00  0.1000000E+01  0.2904298E-15
  0.8845246E-01  0.5434483E-01  0.4888176E-01   0.0000000E+00  0.1000000E+01  0.2904298E-15
           4
 -0.8845246E-01 -0.5434483E-01  0.4888176E-01   0.4510992E-16  0.9021985E-16  0.1000000E+01
  0.8845246E-01 -0.5434483E-01  0.4888176E-01   0.4510992E-16  0.9021985E-16  0.1000000E+01
  0.8845246E-01  0.5434483E-01  0.4888176E-01   0.4510992E-16  0.9021985E-16  0.1000000E+01
 -0.8845246E-01  0.5434483E-01  0.4888176E-01   0.4510992E-16  0.9021985E-16  0.1000000E+01
           4
 -0.9992351E-01  0.5434483E-01  0.1511813E-01  -0.9468462E+00 -0.1678431E-15  0.3216867E+00
 -0.9992351E-01 -0.5434483E-01  0.1511813E-01  -0.9468462E+00 -0.1678431E-15  0.3216867E+00
 -0.8845246E-01 -0.5434483E-01  0.4888176E-01  -0.9468462E+00 -0.1678431E-15  0.3216867E+00
 -0.8845246E-01  0.5434483E-01  0.4888176E-01  -0.9468462E+00 -0.1678431E-15  0.3216867E+00
 BRILLOUIN-ZONE-CONVCELL_END
 ATOMS
   19    0.0000000000    4.5818482040    0.0000000000    0.0000000000    0.0003199700    0.0000000000
   19    2.6542658640    0.0070003030    0.0000000000    0.0000000000   -0.0005036300    0.0000000000
   12   -0.9166761420    8.9833950100    5.1143819100    0.0000000000    0.0004436600    0.0000000000
   12    1.7375897160    4.6392181270    5.1143819100    0.0000000000   -0.0000385400    0.0000000000
   12    1.7375897160    7.5461488760    5.1143819100    0.0000000000    0.0005027500    0.0000000000
   12    1.7375897160    1.4701736750    5.1143819100    0.0000000000    0.0000400200    0.0000000000
   14    0.0043176230    1.5042550020    2.2991715730    0.0003551000   -0.0002080900   -0.0002307200
   14    3.4708619410    1.5042550020    7.9295924000   -0.0003551000   -0.0002080900    0.0002307200
   14    3.5546077480    7.6444532080    7.8719500700    0.0000464800   -0.0001855200    0.0002019500
   14   -0.0794283770    7.6444532080    2.3568134430   -0.0000464800   -0.0001855200   -0.0002019500
   14    2.5314295140    6.1092300570    2.3045824830   -0.0000952500    0.0004127600   -0.0002902900
   14    0.9437498140    6.1092300570    7.9241810300    0.0000952500    0.0004127600    0.0002902900
   13    0.7834595210    3.0486108310    7.9414931730   -0.0000234300   -0.0001131200    0.0000582600
   13    2.6917197250    3.0486108310    2.2872708000    0.0000234300   -0.0001131200   -0.0000582600
    8   -0.0732235340    1.5728707630    3.9677557560    0.0001642000   -0.0000482600   -0.0008395500
    8    3.5484029480    1.5728707630    6.2610077580   -0.0001642000   -0.0000482600    0.0008395500
    8    3.4493434070    7.6566435620    6.2797105170    0.0001529200   -0.0003092400    0.0008094000
    8    0.0258362150    7.6566435620    3.9490526900   -0.0001529200   -0.0003092400   -0.0008094000
    8    2.4831332760    6.0661649910    3.9099200950    0.0002811500    0.0004828900   -0.0006455800
    8    0.9920461560    6.0661649910    6.3188437250   -0.0002811500    0.0004828900    0.0006455800
    8    0.7473428860    3.0224043030    6.1436598130    0.0003797900   -0.0001813300   -0.0001218900
    8    2.7278369700    3.0224043030    4.0851033930   -0.0003797900   -0.0001813300    0.0001218900
    8    1.5032875560    1.8517950630    1.7933727030    0.0003054000   -0.0004212100    0.0003238700
    8    1.9718917010    1.8517950630    8.4353903490   -0.0003054000   -0.0004212100   -0.0003238700
    8    4.9693098970    9.1695333040    1.7649206680    0.0001268200   -0.0002023500    0.0003090800
    8   -1.4941304370    9.1695333040    8.4638429990   -0.0001268200   -0.0002023500   -0.0003090800
    8    2.1519592310    7.0820494390    8.5613889490    0.0001638300    0.0000632000    0.0001292800
    8    1.3232200500    7.0820494390    1.6673748610   -0.0001638300    0.0000632000   -0.0001292800
    8    3.9683516790    6.7582244740    1.7560615140    0.0000534400   -0.0002064300    0.0004930500
    8   -0.4931721120    6.7582244740    8.4727024490   -0.0000534400   -0.0002064300   -0.0004930500
    8    2.3675057130    4.6391399090    1.6325618870    0.0002091400    0.0001788600    0.0002201200
    8    1.1076733460    4.6391399090    8.5962022400   -0.0002091400    0.0001788600   -0.0002201200
    8   -0.7422907370    2.4857518250    8.5961659770    0.0001107400   -0.0000719800   -0.0001523100
    8    4.2174703040    2.4857518250    1.6325975370   -0.0001107400   -0.0000719800    0.0001523100
    8   -0.0778751740    4.4465828180    4.0322121780    0.0007178600   -0.0002797900    0.0001089300
    8    3.5530547430    4.4465828180    6.1965513250   -0.0007178600   -0.0002797900   -0.0001089300
    8    2.6401656020    9.1638317180    4.0991571490   -0.0001130800    0.0004707300    0.0000779300
    8    0.8350140960    9.1638317180    6.1296069670    0.0001130800    0.0004707300   -0.0000779300
    1   -0.5352839490    5.3147686970    3.9874620770    0.0001317500    0.0000715800    0.0003166900
    1    4.0104639270    5.3147686970    6.2413011290   -0.0001317500    0.0000715800   -0.0003166900
    1    2.6328788800    0.0439841670    3.1357526790   -0.0000380700   -0.0000562200    0.0001498800
    1    0.8423006520    0.0439841670    7.0930114480    0.0000380700   -0.0000562200   -0.0001498800
   22   -0.9166761420    3.1022392980    5.1143819100    0.0000000000    0.0004427800    0.0000000000
   19   -1.8333560550    4.5818482040   10.2287648170    0.0000000000    0.0003199700    0.0000000000
   19    0.8209098090    0.0070003030   10.2287648170    0.0000000000   -0.0005036300    0.0000000000
   19    5.3085327230    4.5818482040    0.0000000000    0.0000000000    0.0003199700    0.0000000000
   12    4.3918565810    8.9833950100    5.1143819100    0.0000000000    0.0004436600    0.0000000000
   22    4.3918565810    3.1022392980    5.1143819100    0.0000000000    0.0004427800    0.0000000000
   19    3.4751766680    4.5818482040   10.2287648170    0.0000000000    0.0003199700    0.0000000000
 FRAMES
1      0.0000000000    0.0000000000    0.0000000000      5.3085327230    0.0000000000    0.0000000000
1      0.0000000000    0.0000000000    0.0000000000      0.0000000000    9.2005073420    0.0000000000
1      0.0000000000    0.0000000000    0.0000000000     -1.8333560550    0.0000000000   10.2287648170
1     -1.8333560550    0.0000000000   10.2287648170      3.4751766680    0.0000000000   10.2287648170
1     -1.8333560550    0.0000000000   10.2287648170     -1.8333560550    9.2005073420   10.2287648170
1      0.0000000000    9.2005073420    0.0000000000      5.3085327230    9.2005073420    0.0000000000
1      0.0000000000    9.2005073420    0.0000000000     -1.8333560550    9.2005073420   10.2287648170
1     -1.8333560550    9.2005073420   10.2287648170      3.4751766680    9.2005073420   10.2287648170
1      5.3085327230    0.0000000000    0.0000000000      5.3085327230    9.2005073420    0.0000000000
1      5.3085327230    0.0000000000    0.0000000000      3.4751766680    0.0000000000   10.2287648170
1      3.4751766680    0.0000000000   10.2287648170      3.4751766680    9.2005073420   10.2287648170
1      5.3085327230    9.2005073420    0.0000000000      3.4751766680    9.2005073420   10.2287648170
