 INFO
nunit      1    1    1
unit   cell
celltype   primcell
shape   parapipedal
 END_INFO
 DIM-GROUP
           3           1
 PRIMVEC
    5.2991013420    0.0000000000    0.0000000000
    0.0000000000    9.1961535010    0.0000000000
   -1.8187670600    0.0000000000   10.0971036880
 CONVVEC
    5.2991013420    0.0000000000    0.0000000000
    0.0000000000    9.1961535010    0.0000000000
   -1.8187670600    0.0000000000   10.0971036880
 PRIMCOORD
          44           1
 19      0.0000000000     4.5631559590     0.0000000000     0.0000000000     0.0002204700     0.0000000000
 19      2.6495506210     0.0163939170     0.0000000000     0.0000000000    -0.0001215200     0.0000000000
 12     -0.9093839900     0.0399115920     5.0485505820     0.0000000000    -0.0002631900     0.0000000000
 12     -0.9093839900     3.0658481590     5.0485505820     0.0000000000    -0.0000564100     0.0000000000
 12     -0.9093839900     6.1143961700     5.0485505820     0.0000000000     0.0002223600     0.0000000000
 12      1.7401666310     4.5357816990     5.0485505820     0.0000000000    -0.0000863100     0.0000000000
 12      1.7401666310     7.6791514930     5.0485505820     0.0000000000     0.0001522200     0.0000000000
 12      1.7401666310     1.5826361230     5.0485505820     0.0000000000    -0.0001170900     0.0000000000
 14      0.0336781010     1.5161047000     2.2607253550     0.0003244600     0.0000611000     0.0000658700
 14      3.4466550320     1.5161047000     7.8363761120    -0.0003244600     0.0000611000    -0.0000658700
 14      3.5485479290     7.6719507680     7.7741713220     0.0001337400    -0.0002053000    -0.0004144100
 14     -0.0682146680     7.6719507680     2.3229298420    -0.0001337400    -0.0002053000     0.0004144100
 14      2.5778204400     6.1294891880     2.3032226390    -0.0002281700    -0.0000449600     0.0002315100
 14      0.9025128490     6.1294891880     7.7938783730     0.0002281700    -0.0000449600    -0.0002315100
 13      0.7922291470     3.0427300950     7.8196716670    -0.0000972900     0.0001361900    -0.0006937800
 13      2.6881041140     3.0427300950     2.2774294970     0.0000972900     0.0001361900     0.0006937800
  8     -0.0267737810     1.5033178770     3.8919082710     0.0000210000     0.0002173000    -0.0002889600
  8      3.5071068310     1.5033178770     6.2051931850    -0.0000210000     0.0002173000     0.0002889600
  8      3.5242999540     7.6613233310     6.1563996600    -0.0000729900    -0.0000691000    -0.0000544400
  8     -0.0439666930     7.6613233310     3.9407015040     0.0000729900    -0.0000691000     0.0000544400
  8      2.6074916340     6.1542392830     3.9278788010     0.0002365200    -0.0000316100    -0.0001161600
  8      0.8728416280     6.1542392830     6.1692223620    -0.0002365200    -0.0000316100     0.0001161600
  8      0.8160462000     3.0620689200     6.0913080340    -0.0001253800    -0.0001174900    -0.0004209600
  8      2.6642870610     3.0620689200     4.0057931300     0.0001253800    -0.0001174900     0.0004209600
  8      1.5203365720     1.8502809240     1.6895977670     0.0004783500    -0.0000793300    -0.0003229600
  8      1.9599967440     1.8502809240     8.4075030940    -0.0004783500    -0.0000793300     0.0003229600
  8      4.9539239170     9.1690974050     1.7074120310     0.0000993500     0.0000114700     0.0002483000
  8     -1.4735906290     9.1690974050     8.3896889810    -0.0000993500     0.0000114700    -0.0002483000
  8      2.0983092330     7.1444204460     8.3746149300     0.0001157600     0.0001418900     0.0001370700
  8      1.3820240290     7.1444204460     1.7224862340    -0.0001157600     0.0001418900    -0.0001370700
  8      4.0276957000     6.7124149480     1.7114164090    -0.0002647200     0.0000090200     0.0000367800
  8     -0.5473624390     6.7124149480     8.3856847550     0.0002647200     0.0000090200    -0.0000367800
  8      2.3203538560     4.6697741770     1.6543056740     0.0000947400    -0.0002001300    -0.0002754900
  8      1.1599792200     4.6697741770     8.4427956410    -0.0000947400    -0.0002001300     0.0002754900
  8     -0.7750457840     2.5539817340     8.4744357180     0.0000187600     0.0002207400    -0.0002422000
  8      4.2553791250     2.5539817340     1.6226654450    -0.0000187600     0.0002207400     0.0002422000
  8     -0.0256419730     4.6366826730     3.9769068530     0.0000627100    -0.0001468100     0.0007013500
  8      3.5059753140     4.6366826730     6.1201943100    -0.0000627100    -0.0001468100    -0.0007013500
  8      2.6294129240     9.1901781730     4.0121323450     0.0000046700     0.0002665600     0.0006637700
  8      0.8509203910     9.1901781730     6.0849685160    -0.0000046700     0.0002665600    -0.0006637700
  1     -0.0185360380     4.5392714410     3.0169804750    -0.0000308900    -0.0002089600     0.0006735100
  1      3.4988694590     4.5392714410     7.0801206890     0.0000308900    -0.0002089600    -0.0006735100
  1      2.6039086000     0.1516919410     3.0595001440    -0.0002035200     0.0000641600     0.0003914900
  1      0.8764246610     0.1516919410     7.0376010190     0.0002035200     0.0000641600    -0.0003914900
 CONVCOORD
          44           1
 19      0.0000000000     4.5631559590     0.0000000000
 19      2.6495506210     0.0163939170     0.0000000000
 12     -0.9093839900     0.0399115920     5.0485505820
 12     -0.9093839900     3.0658481590     5.0485505820
 12     -0.9093839900     6.1143961700     5.0485505820
 12      1.7401666310     4.5357816990     5.0485505820
 12      1.7401666310     7.6791514930     5.0485505820
 12      1.7401666310     1.5826361230     5.0485505820
 14      0.0336781010     1.5161047000     2.2607253550
 14      3.4466550320     1.5161047000     7.8363761120
 14      3.5485479290     7.6719507680     7.7741713220
 14     -0.0682146680     7.6719507680     2.3229298420
 14      2.5778204400     6.1294891880     2.3032226390
 14      0.9025128490     6.1294891880     7.7938783730
 13      0.7922291470     3.0427300950     7.8196716670
 13      2.6881041140     3.0427300950     2.2774294970
  8     -0.0267737810     1.5033178770     3.8919082710
  8      3.5071068310     1.5033178770     6.2051931850
  8      3.5242999540     7.6613233310     6.1563996600
  8     -0.0439666930     7.6613233310     3.9407015040
  8      2.6074916340     6.1542392830     3.9278788010
  8      0.8728416280     6.1542392830     6.1692223620
  8      0.8160462000     3.0620689200     6.0913080340
  8      2.6642870610     3.0620689200     4.0057931300
  8      1.5203365720     1.8502809240     1.6895977670
  8      1.9599967440     1.8502809240     8.4075030940
  8      4.9539239170     9.1690974050     1.7074120310
  8     -1.4735906290     9.1690974050     8.3896889810
  8      2.0983092330     7.1444204460     8.3746149300
  8      1.3820240290     7.1444204460     1.7224862340
  8      4.0276957000     6.7124149480     1.7114164090
  8     -0.5473624390     6.7124149480     8.3856847550
  8      2.3203538560     4.6697741770     1.6543056740
  8      1.1599792200     4.6697741770     8.4427956410
  8     -0.7750457840     2.5539817340     8.4744357180
  8      4.2553791250     2.5539817340     1.6226654450
  8     -0.0256419730     4.6366826730     3.9769068530
  8      3.5059753140     4.6366826730     6.1201943100
  8      2.6294129240     9.1901781730     4.0121323450
  8      0.8509203910     9.1901781730     6.0849685160
  1     -0.0185360380     4.5392714410     3.0169804750
  1      3.4988694590     4.5392714410     7.0801206890
  1      2.6039086000     0.1516919410     3.0595001440
  1      0.8764246610     0.1516919410     7.0376010190
 RECIP-PRIMVEC
    0.1887112428   -0.0000000000    0.0339921034

    0.0000000000    0.1087411166   -0.0000000000

    0.0000000000    0.0000000000    0.0990383016

 RECIP-CONVVEC
    0.1887112428   -0.0000000000    0.0339921034

    0.0000000000    0.1087411166   -0.0000000000

    0.0000000000    0.0000000000    0.0990383016

 WIGNER-SEITZ-PRIMCELL
           4
 -0.2649551E+01  0.4598077E+01 -0.4735100E+01  -0.3258714E+00 -0.3215886E-15 -0.9454141E+00
 -0.8307836E+00  0.4598077E+01 -0.5362004E+01  -0.3258714E+00 -0.3215886E-15 -0.9454141E+00
 -0.8307836E+00 -0.4598077E+01 -0.5362004E+01  -0.3258714E+00 -0.3215886E-15 -0.9454141E+00
 -0.2649551E+01 -0.4598077E+01 -0.4735100E+01  -0.3258714E+00 -0.3215886E-15 -0.9454141E+00
           4
 -0.2649551E+01  0.4598077E+01 -0.4735100E+01  -0.1000000E+01 -0.0000000E+00 -0.0000000E+00
 -0.2649551E+01 -0.4598077E+01 -0.4735100E+01  -0.1000000E+01 -0.0000000E+00 -0.0000000E+00
 -0.2649551E+01 -0.4598077E+01  0.4735100E+01  -0.1000000E+01 -0.0000000E+00 -0.0000000E+00
 -0.2649551E+01  0.4598077E+01  0.4735100E+01  -0.1000000E+01 -0.0000000E+00 -0.0000000E+00
           6
  0.2649551E+01 -0.4598077E+01  0.4735100E+01  -0.0000000E+00 -0.1000000E+01  0.5347204E-15
  0.8307836E+00 -0.4598077E+01  0.5362004E+01  -0.0000000E+00 -0.1000000E+01  0.5347204E-15
 -0.2649551E+01 -0.4598077E+01  0.4735100E+01  -0.0000000E+00 -0.1000000E+01  0.5347204E-15
 -0.2649551E+01 -0.4598077E+01 -0.4735100E+01  -0.0000000E+00 -0.1000000E+01  0.5347204E-15
 -0.8307836E+00 -0.4598077E+01 -0.5362004E+01  -0.0000000E+00 -0.1000000E+01  0.5347204E-15
  0.2649551E+01 -0.4598077E+01 -0.4735100E+01  -0.0000000E+00 -0.1000000E+01  0.5347204E-15
           4
  0.2649551E+01  0.4598077E+01 -0.4735100E+01   0.1772746E+00  0.0000000E+00 -0.9841614E+00
  0.2649551E+01 -0.4598077E+01 -0.4735100E+01   0.1772746E+00  0.0000000E+00 -0.9841614E+00
 -0.8307836E+00 -0.4598077E+01 -0.5362004E+01   0.1772746E+00  0.0000000E+00 -0.9841614E+00
 -0.8307836E+00  0.4598077E+01 -0.5362004E+01   0.1772746E+00  0.0000000E+00 -0.9841614E+00
           4
 -0.2649551E+01  0.4598077E+01  0.4735100E+01  -0.1772746E+00 -0.1092444E-15  0.9841614E+00
 -0.2649551E+01 -0.4598077E+01  0.4735100E+01  -0.1772746E+00 -0.1092444E-15  0.9841614E+00
  0.8307836E+00 -0.4598077E+01  0.5362004E+01  -0.1772746E+00 -0.1092444E-15  0.9841614E+00
  0.8307836E+00  0.4598077E+01  0.5362004E+01  -0.1772746E+00 -0.1092444E-15  0.9841614E+00
           6
  0.2649551E+01  0.4598077E+01 -0.4735100E+01   0.0000000E+00  0.1000000E+01  0.1069441E-14
 -0.8307836E+00  0.4598077E+01 -0.5362004E+01   0.0000000E+00  0.1000000E+01  0.1069441E-14
 -0.2649551E+01  0.4598077E+01 -0.4735100E+01   0.0000000E+00  0.1000000E+01  0.1069441E-14
 -0.2649551E+01  0.4598077E+01  0.4735100E+01   0.0000000E+00  0.1000000E+01  0.1069441E-14
  0.8307836E+00  0.4598077E+01  0.5362004E+01   0.0000000E+00  0.1000000E+01  0.1069441E-14
  0.2649551E+01  0.4598077E+01  0.4735100E+01   0.0000000E+00  0.1000000E+01  0.1069441E-14
           4
  0.2649551E+01  0.4598077E+01  0.4735100E+01   0.1000000E+01  0.0000000E+00  0.0000000E+00
  0.2649551E+01 -0.4598077E+01  0.4735100E+01   0.1000000E+01  0.0000000E+00  0.0000000E+00
  0.2649551E+01 -0.4598077E+01 -0.4735100E+01   0.1000000E+01  0.0000000E+00  0.0000000E+00
  0.2649551E+01  0.4598077E+01 -0.4735100E+01   0.1000000E+01  0.0000000E+00  0.0000000E+00
           4
  0.8307836E+00 -0.4598077E+01  0.5362004E+01   0.3258714E+00  0.6837816E-16  0.9454141E+00
  0.2649551E+01 -0.4598077E+01  0.4735100E+01   0.3258714E+00  0.6837816E-16  0.9454141E+00
  0.2649551E+01  0.4598077E+01  0.4735100E+01   0.3258714E+00  0.6837816E-16  0.9454141E+00
  0.8307836E+00  0.4598077E+01  0.5362004E+01   0.3258714E+00  0.6837816E-16  0.9454141E+00
 WIGNER-SEITZ-PRIMCELL_END
 WIGNER-SEITZ-CONVCELL
           4
 -0.2649551E+01  0.4598077E+01 -0.4735100E+01  -0.3258714E+00 -0.3215886E-15 -0.9454141E+00
 -0.8307836E+00  0.4598077E+01 -0.5362004E+01  -0.3258714E+00 -0.3215886E-15 -0.9454141E+00
 -0.8307836E+00 -0.4598077E+01 -0.5362004E+01  -0.3258714E+00 -0.3215886E-15 -0.9454141E+00
 -0.2649551E+01 -0.4598077E+01 -0.4735100E+01  -0.3258714E+00 -0.3215886E-15 -0.9454141E+00
           4
 -0.2649551E+01  0.4598077E+01 -0.4735100E+01  -0.1000000E+01 -0.0000000E+00 -0.0000000E+00
 -0.2649551E+01 -0.4598077E+01 -0.4735100E+01  -0.1000000E+01 -0.0000000E+00 -0.0000000E+00
 -0.2649551E+01 -0.4598077E+01  0.4735100E+01  -0.1000000E+01 -0.0000000E+00 -0.0000000E+00
 -0.2649551E+01  0.4598077E+01  0.4735100E+01  -0.1000000E+01 -0.0000000E+00 -0.0000000E+00
           6
  0.2649551E+01 -0.4598077E+01  0.4735100E+01  -0.0000000E+00 -0.1000000E+01  0.5347204E-15
  0.8307836E+00 -0.4598077E+01  0.5362004E+01  -0.0000000E+00 -0.1000000E+01  0.5347204E-15
 -0.2649551E+01 -0.4598077E+01  0.4735100E+01  -0.0000000E+00 -0.1000000E+01  0.5347204E-15
 -0.2649551E+01 -0.4598077E+01 -0.4735100E+01  -0.0000000E+00 -0.1000000E+01  0.5347204E-15
 -0.8307836E+00 -0.4598077E+01 -0.5362004E+01  -0.0000000E+00 -0.1000000E+01  0.5347204E-15
  0.2649551E+01 -0.4598077E+01 -0.4735100E+01  -0.0000000E+00 -0.1000000E+01  0.5347204E-15
           4
  0.2649551E+01  0.4598077E+01 -0.4735100E+01   0.1772746E+00  0.0000000E+00 -0.9841614E+00
  0.2649551E+01 -0.4598077E+01 -0.4735100E+01   0.1772746E+00  0.0000000E+00 -0.9841614E+00
 -0.8307836E+00 -0.4598077E+01 -0.5362004E+01   0.1772746E+00  0.0000000E+00 -0.9841614E+00
 -0.8307836E+00  0.4598077E+01 -0.5362004E+01   0.1772746E+00  0.0000000E+00 -0.9841614E+00
           4
 -0.2649551E+01  0.4598077E+01  0.4735100E+01  -0.1772746E+00 -0.1092444E-15  0.9841614E+00
 -0.2649551E+01 -0.4598077E+01  0.4735100E+01  -0.1772746E+00 -0.1092444E-15  0.9841614E+00
  0.8307836E+00 -0.4598077E+01  0.5362004E+01  -0.1772746E+00 -0.1092444E-15  0.9841614E+00
  0.8307836E+00  0.4598077E+01  0.5362004E+01  -0.1772746E+00 -0.1092444E-15  0.9841614E+00
           6
  0.2649551E+01  0.4598077E+01 -0.4735100E+01   0.0000000E+00  0.1000000E+01  0.1069441E-14
 -0.8307836E+00  0.4598077E+01 -0.5362004E+01   0.0000000E+00  0.1000000E+01  0.1069441E-14
 -0.2649551E+01  0.4598077E+01 -0.4735100E+01   0.0000000E+00  0.1000000E+01  0.1069441E-14
 -0.2649551E+01  0.4598077E+01  0.4735100E+01   0.0000000E+00  0.1000000E+01  0.1069441E-14
  0.8307836E+00  0.4598077E+01  0.5362004E+01   0.0000000E+00  0.1000000E+01  0.1069441E-14
  0.2649551E+01  0.4598077E+01  0.4735100E+01   0.0000000E+00  0.1000000E+01  0.1069441E-14
           4
  0.2649551E+01  0.4598077E+01  0.4735100E+01   0.1000000E+01  0.0000000E+00  0.0000000E+00
  0.2649551E+01 -0.4598077E+01  0.4735100E+01   0.1000000E+01  0.0000000E+00  0.0000000E+00
  0.2649551E+01 -0.4598077E+01 -0.4735100E+01   0.1000000E+01  0.0000000E+00  0.0000000E+00
  0.2649551E+01  0.4598077E+01 -0.4735100E+01   0.1000000E+01  0.0000000E+00  0.0000000E+00
           4
  0.8307836E+00 -0.4598077E+01  0.5362004E+01   0.3258714E+00  0.6837816E-16  0.9454141E+00
  0.2649551E+01 -0.4598077E+01  0.4735100E+01   0.3258714E+00  0.6837816E-16  0.9454141E+00
  0.2649551E+01  0.4598077E+01  0.4735100E+01   0.3258714E+00  0.6837816E-16  0.9454141E+00
  0.8307836E+00  0.4598077E+01  0.5362004E+01   0.3258714E+00  0.6837816E-16  0.9454141E+00
 WIGNER-SEITZ-CONVCELL_END
 BRILLOUIN-ZONE-PRIMCELL
           4
  0.1002139E+00 -0.5437056E-01 -0.1552705E-01   0.9454141E+00  0.0000000E+00 -0.3258714E+00
  0.8849731E-01 -0.5437056E-01 -0.4951915E-01   0.9454141E+00  0.0000000E+00 -0.3258714E+00
  0.8849731E-01  0.5437056E-01 -0.4951915E-01   0.9454141E+00  0.0000000E+00 -0.3258714E+00
  0.1002139E+00  0.5437056E-01 -0.1552705E-01   0.9454141E+00  0.0000000E+00 -0.3258714E+00
           4
 -0.8849731E-01 -0.5437056E-01 -0.4951915E-01  -0.8077159E-16 -0.9013146E-16 -0.1000000E+01
 -0.8849731E-01  0.5437056E-01 -0.4951915E-01  -0.8077159E-16 -0.9013146E-16 -0.1000000E+01
  0.8849731E-01  0.5437056E-01 -0.4951915E-01  -0.8077159E-16 -0.9013146E-16 -0.1000000E+01
  0.8849731E-01 -0.5437056E-01 -0.4951915E-01  -0.8077159E-16 -0.9013146E-16 -0.1000000E+01
           6
  0.8849731E-01 -0.5437056E-01  0.4951915E-01  -0.0000000E+00 -0.1000000E+01  0.0000000E+00
 -0.8849731E-01 -0.5437056E-01  0.4951915E-01  -0.0000000E+00 -0.1000000E+01  0.0000000E+00
 -0.1002139E+00 -0.5437056E-01  0.1552705E-01  -0.0000000E+00 -0.1000000E+01  0.0000000E+00
 -0.8849731E-01 -0.5437056E-01 -0.4951915E-01  -0.0000000E+00 -0.1000000E+01  0.0000000E+00
  0.8849731E-01 -0.5437056E-01 -0.4951915E-01  -0.0000000E+00 -0.1000000E+01  0.0000000E+00
  0.1002139E+00 -0.5437056E-01 -0.1552705E-01  -0.0000000E+00 -0.1000000E+01  0.0000000E+00
           4
  0.8849731E-01  0.5437056E-01  0.4951915E-01   0.9841614E+00 -0.1923407E-15  0.1772746E+00
  0.8849731E-01 -0.5437056E-01  0.4951915E-01   0.9841614E+00 -0.1923407E-15  0.1772746E+00
  0.1002139E+00 -0.5437056E-01 -0.1552705E-01   0.9841614E+00 -0.1923407E-15  0.1772746E+00
  0.1002139E+00  0.5437056E-01 -0.1552705E-01   0.9841614E+00 -0.1923407E-15  0.1772746E+00
           4
 -0.8849731E-01  0.5437056E-01 -0.4951915E-01  -0.9841614E+00  0.2262831E-15 -0.1772746E+00
 -0.8849731E-01 -0.5437056E-01 -0.4951915E-01  -0.9841614E+00  0.2262831E-15 -0.1772746E+00
 -0.1002139E+00 -0.5437056E-01  0.1552705E-01  -0.9841614E+00  0.2262831E-15 -0.1772746E+00
 -0.1002139E+00  0.5437056E-01  0.1552705E-01  -0.9841614E+00  0.2262831E-15 -0.1772746E+00
           6
  0.1002139E+00  0.5437056E-01 -0.1552705E-01  -0.0000000E+00  0.1000000E+01 -0.0000000E+00
  0.8849731E-01  0.5437056E-01 -0.4951915E-01  -0.0000000E+00  0.1000000E+01 -0.0000000E+00
 -0.8849731E-01  0.5437056E-01 -0.4951915E-01  -0.0000000E+00  0.1000000E+01 -0.0000000E+00
 -0.1002139E+00  0.5437056E-01  0.1552705E-01  -0.0000000E+00  0.1000000E+01 -0.0000000E+00
 -0.8849731E-01  0.5437056E-01  0.4951915E-01  -0.0000000E+00  0.1000000E+01 -0.0000000E+00
  0.8849731E-01  0.5437056E-01  0.4951915E-01  -0.0000000E+00  0.1000000E+01 -0.0000000E+00
           4
 -0.8849731E-01 -0.5437056E-01  0.4951915E-01   0.4506573E-16  0.5442559E-16  0.1000000E+01
  0.8849731E-01 -0.5437056E-01  0.4951915E-01   0.4506573E-16  0.5442559E-16  0.1000000E+01
  0.8849731E-01  0.5437056E-01  0.4951915E-01   0.4506573E-16  0.5442559E-16  0.1000000E+01
 -0.8849731E-01  0.5437056E-01  0.4951915E-01   0.4506573E-16  0.5442559E-16  0.1000000E+01
           4
 -0.1002139E+00  0.5437056E-01  0.1552705E-01  -0.9454141E+00  0.1733168E-15  0.3258714E+00
 -0.1002139E+00 -0.5437056E-01  0.1552705E-01  -0.9454141E+00  0.1733168E-15  0.3258714E+00
 -0.8849731E-01 -0.5437056E-01  0.4951915E-01  -0.9454141E+00  0.1733168E-15  0.3258714E+00
 -0.8849731E-01  0.5437056E-01  0.4951915E-01  -0.9454141E+00  0.1733168E-15  0.3258714E+00
 BRILLOUIN-ZONE-PRIMCELL_END
 BRILLOUIN-ZONE-CONVCELL
           4
  0.1002139E+00 -0.5437056E-01 -0.1552705E-01   0.9454141E+00  0.0000000E+00 -0.3258714E+00
  0.8849731E-01 -0.5437056E-01 -0.4951915E-01   0.9454141E+00  0.0000000E+00 -0.3258714E+00
  0.8849731E-01  0.5437056E-01 -0.4951915E-01   0.9454141E+00  0.0000000E+00 -0.3258714E+00
  0.1002139E+00  0.5437056E-01 -0.1552705E-01   0.9454141E+00  0.0000000E+00 -0.3258714E+00
           4
 -0.8849731E-01 -0.5437056E-01 -0.4951915E-01  -0.8077159E-16 -0.9013146E-16 -0.1000000E+01
 -0.8849731E-01  0.5437056E-01 -0.4951915E-01  -0.8077159E-16 -0.9013146E-16 -0.1000000E+01
  0.8849731E-01  0.5437056E-01 -0.4951915E-01  -0.8077159E-16 -0.9013146E-16 -0.1000000E+01
  0.8849731E-01 -0.5437056E-01 -0.4951915E-01  -0.8077159E-16 -0.9013146E-16 -0.1000000E+01
           6
  0.8849731E-01 -0.5437056E-01  0.4951915E-01  -0.0000000E+00 -0.1000000E+01  0.0000000E+00
 -0.8849731E-01 -0.5437056E-01  0.4951915E-01  -0.0000000E+00 -0.1000000E+01  0.0000000E+00
 -0.1002139E+00 -0.5437056E-01  0.1552705E-01  -0.0000000E+00 -0.1000000E+01  0.0000000E+00
 -0.8849731E-01 -0.5437056E-01 -0.4951915E-01  -0.0000000E+00 -0.1000000E+01  0.0000000E+00
  0.8849731E-01 -0.5437056E-01 -0.4951915E-01  -0.0000000E+00 -0.1000000E+01  0.0000000E+00
  0.1002139E+00 -0.5437056E-01 -0.1552705E-01  -0.0000000E+00 -0.1000000E+01  0.0000000E+00
           4
  0.8849731E-01  0.5437056E-01  0.4951915E-01   0.9841614E+00 -0.1923407E-15  0.1772746E+00
  0.8849731E-01 -0.5437056E-01  0.4951915E-01   0.9841614E+00 -0.1923407E-15  0.1772746E+00
  0.1002139E+00 -0.5437056E-01 -0.1552705E-01   0.9841614E+00 -0.1923407E-15  0.1772746E+00
  0.1002139E+00  0.5437056E-01 -0.1552705E-01   0.9841614E+00 -0.1923407E-15  0.1772746E+00
           4
 -0.8849731E-01  0.5437056E-01 -0.4951915E-01  -0.9841614E+00  0.2262831E-15 -0.1772746E+00
 -0.8849731E-01 -0.5437056E-01 -0.4951915E-01  -0.9841614E+00  0.2262831E-15 -0.1772746E+00
 -0.1002139E+00 -0.5437056E-01  0.1552705E-01  -0.9841614E+00  0.2262831E-15 -0.1772746E+00
 -0.1002139E+00  0.5437056E-01  0.1552705E-01  -0.9841614E+00  0.2262831E-15 -0.1772746E+00
           6
  0.1002139E+00  0.5437056E-01 -0.1552705E-01  -0.0000000E+00  0.1000000E+01 -0.0000000E+00
  0.8849731E-01  0.5437056E-01 -0.4951915E-01  -0.0000000E+00  0.1000000E+01 -0.0000000E+00
 -0.8849731E-01  0.5437056E-01 -0.4951915E-01  -0.0000000E+00  0.1000000E+01 -0.0000000E+00
 -0.1002139E+00  0.5437056E-01  0.1552705E-01  -0.0000000E+00  0.1000000E+01 -0.0000000E+00
 -0.8849731E-01  0.5437056E-01  0.4951915E-01  -0.0000000E+00  0.1000000E+01 -0.0000000E+00
  0.8849731E-01  0.5437056E-01  0.4951915E-01  -0.0000000E+00  0.1000000E+01 -0.0000000E+00
           4
 -0.8849731E-01 -0.5437056E-01  0.4951915E-01   0.4506573E-16  0.5442559E-16  0.1000000E+01
  0.8849731E-01 -0.5437056E-01  0.4951915E-01   0.4506573E-16  0.5442559E-16  0.1000000E+01
  0.8849731E-01  0.5437056E-01  0.4951915E-01   0.4506573E-16  0.5442559E-16  0.1000000E+01
 -0.8849731E-01  0.5437056E-01  0.4951915E-01   0.4506573E-16  0.5442559E-16  0.1000000E+01
           4
 -0.1002139E+00  0.5437056E-01  0.1552705E-01  -0.9454141E+00  0.1733168E-15  0.3258714E+00
 -0.1002139E+00 -0.5437056E-01  0.1552705E-01  -0.9454141E+00  0.1733168E-15  0.3258714E+00
 -0.8849731E-01 -0.5437056E-01  0.4951915E-01  -0.9454141E+00  0.1733168E-15  0.3258714E+00
 -0.8849731E-01  0.5437056E-01  0.4951915E-01  -0.9454141E+00  0.1733168E-15  0.3258714E+00
 BRILLOUIN-ZONE-CONVCELL_END
 ATOMS
   19    0.0000000000    4.5631559590    0.0000000000    0.0000000000    0.0002204700    0.0000000000
   19    2.6495506210    0.0163939170    0.0000000000    0.0000000000   -0.0001215200    0.0000000000
   12   -0.9093839900    0.0399115920    5.0485505820    0.0000000000   -0.0002631900    0.0000000000
   12   -0.9093839900    3.0658481590    5.0485505820    0.0000000000   -0.0000564100    0.0000000000
   12   -0.9093839900    6.1143961700    5.0485505820    0.0000000000    0.0002223600    0.0000000000
   12    1.7401666310    4.5357816990    5.0485505820    0.0000000000   -0.0000863100    0.0000000000
   12    1.7401666310    7.6791514930    5.0485505820    0.0000000000    0.0001522200    0.0000000000
   12    1.7401666310    1.5826361230    5.0485505820    0.0000000000   -0.0001170900    0.0000000000
   14    0.0336781010    1.5161047000    2.2607253550    0.0003244600    0.0000611000    0.0000658700
   14    3.4466550320    1.5161047000    7.8363761120   -0.0003244600    0.0000611000   -0.0000658700
   14    3.5485479290    7.6719507680    7.7741713220    0.0001337400   -0.0002053000   -0.0004144100
   14   -0.0682146680    7.6719507680    2.3229298420   -0.0001337400   -0.0002053000    0.0004144100
   14    2.5778204400    6.1294891880    2.3032226390   -0.0002281700   -0.0000449600    0.0002315100
   14    0.9025128490    6.1294891880    7.7938783730    0.0002281700   -0.0000449600   -0.0002315100
   13    0.7922291470    3.0427300950    7.8196716670   -0.0000972900    0.0001361900   -0.0006937800
   13    2.6881041140    3.0427300950    2.2774294970    0.0000972900    0.0001361900    0.0006937800
    8   -0.0267737810    1.5033178770    3.8919082710    0.0000210000    0.0002173000   -0.0002889600
    8    3.5071068310    1.5033178770    6.2051931850   -0.0000210000    0.0002173000    0.0002889600
    8    3.5242999540    7.6613233310    6.1563996600   -0.0000729900   -0.0000691000   -0.0000544400
    8   -0.0439666930    7.6613233310    3.9407015040    0.0000729900   -0.0000691000    0.0000544400
    8    2.6074916340    6.1542392830    3.9278788010    0.0002365200   -0.0000316100   -0.0001161600
    8    0.8728416280    6.1542392830    6.1692223620   -0.0002365200   -0.0000316100    0.0001161600
    8    0.8160462000    3.0620689200    6.0913080340   -0.0001253800   -0.0001174900   -0.0004209600
    8    2.6642870610    3.0620689200    4.0057931300    0.0001253800   -0.0001174900    0.0004209600
    8    1.5203365720    1.8502809240    1.6895977670    0.0004783500   -0.0000793300   -0.0003229600
    8    1.9599967440    1.8502809240    8.4075030940   -0.0004783500   -0.0000793300    0.0003229600
    8    4.9539239170    9.1690974050    1.7074120310    0.0000993500    0.0000114700    0.0002483000
    8   -1.4735906290    9.1690974050    8.3896889810   -0.0000993500    0.0000114700   -0.0002483000
    8    2.0983092330    7.1444204460    8.3746149300    0.0001157600    0.0001418900    0.0001370700
    8    1.3820240290    7.1444204460    1.7224862340   -0.0001157600    0.0001418900   -0.0001370700
    8    4.0276957000    6.7124149480    1.7114164090   -0.0002647200    0.0000090200    0.0000367800
    8   -0.5473624390    6.7124149480    8.3856847550    0.0002647200    0.0000090200   -0.0000367800
    8    2.3203538560    4.6697741770    1.6543056740    0.0000947400   -0.0002001300   -0.0002754900
    8    1.1599792200    4.6697741770    8.4427956410   -0.0000947400   -0.0002001300    0.0002754900
    8   -0.7750457840    2.5539817340    8.4744357180    0.0000187600    0.0002207400   -0.0002422000
    8    4.2553791250    2.5539817340    1.6226654450   -0.0000187600    0.0002207400    0.0002422000
    8   -0.0256419730    4.6366826730    3.9769068530    0.0000627100   -0.0001468100    0.0007013500
    8    3.5059753140    4.6366826730    6.1201943100   -0.0000627100   -0.0001468100   -0.0007013500
    8    2.6294129240    9.1901781730    4.0121323450    0.0000046700    0.0002665600    0.0006637700
    8    0.8509203910    9.1901781730    6.0849685160   -0.0000046700    0.0002665600   -0.0006637700
    1   -0.0185360380    4.5392714410    3.0169804750   -0.0000308900   -0.0002089600    0.0006735100
    1    3.4988694590    4.5392714410    7.0801206890    0.0000308900   -0.0002089600   -0.0006735100
    1    2.6039086000    0.1516919410    3.0595001440   -0.0002035200    0.0000641600    0.0003914900
    1    0.8764246610    0.1516919410    7.0376010190    0.0002035200    0.0000641600   -0.0003914900
   19   -1.8187670600    4.5631559590   10.0971036880    0.0000000000    0.0002204700    0.0000000000
   19    0.8307835610    0.0163939170   10.0971036880    0.0000000000   -0.0001215200    0.0000000000
   19    5.2991013420    4.5631559590    0.0000000000    0.0000000000    0.0002204700    0.0000000000
   12    4.3897173520    0.0399115920    5.0485505820    0.0000000000   -0.0002631900    0.0000000000
   12    4.3897173520    3.0658481590    5.0485505820    0.0000000000   -0.0000564100    0.0000000000
   12    4.3897173520    6.1143961700    5.0485505820    0.0000000000    0.0002223600    0.0000000000
   19    3.4803342820    4.5631559590   10.0971036880    0.0000000000    0.0002204700    0.0000000000
 FRAMES
1      0.0000000000    0.0000000000    0.0000000000      5.2991013420    0.0000000000    0.0000000000
1      0.0000000000    0.0000000000    0.0000000000      0.0000000000    9.1961535010    0.0000000000
1      0.0000000000    0.0000000000    0.0000000000     -1.8187670600    0.0000000000   10.0971036880
1     -1.8187670600    0.0000000000   10.0971036880      3.4803342820    0.0000000000   10.0971036880
1     -1.8187670600    0.0000000000   10.0971036880     -1.8187670600    9.1961535010   10.0971036880
1      0.0000000000    9.1961535010    0.0000000000      5.2991013420    9.1961535010    0.0000000000
1      0.0000000000    9.1961535010    0.0000000000     -1.8187670600    9.1961535010   10.0971036880
1     -1.8187670600    9.1961535010   10.0971036880      3.4803342820    9.1961535010   10.0971036880
1      5.2991013420    0.0000000000    0.0000000000      5.2991013420    9.1961535010    0.0000000000
1      5.2991013420    0.0000000000    0.0000000000      3.4803342820    0.0000000000   10.0971036880
1      3.4803342820    0.0000000000   10.0971036880      3.4803342820    9.1961535010   10.0971036880
1      5.2991013420    9.1961535010    0.0000000000      3.4803342820    9.1961535010   10.0971036880
