 INFO
nunit      1    1    1
unit   cell
celltype   primcell
shape   parapipedal
 END_INFO
 DIM-GROUP
           3           1
 PRIMVEC
    5.3047765600    0.0000000000    0.0000000000
    0.0000000000    9.2101534330    0.0000000000
   -1.7973697390    0.0000000000   10.2554481090
 CONVVEC
    5.3047765600    0.0000000000    0.0000000000
    0.0000000000    9.2101534330    0.0000000000
   -1.7973697390    0.0000000000   10.2554481090
 PRIMCOORD
          44           1
 19      0.0000000000     4.5194805600     0.0000000000     0.0000000000    -0.0006692600     0.0000000000
 19      2.6523876470     0.0617785640     0.0000000000     0.0000000000     0.0007262400     0.0000000000
 12     -0.8986843700     3.0368705970     5.1277251010     0.0000000000    -0.0003988700     0.0000000000
 12     -0.8986843700     6.1415635200     5.1277251010     0.0000000000     0.0006149700     0.0000000000
 12      1.7537032770     4.5407505160     5.1277251010     0.0000000000    -0.0006362800     0.0000000000
 12      1.7537032770     7.7047008230     5.1277251010     0.0000000000     0.0005034400     0.0000000000
 12      1.7537032770     1.5735395910     5.1277251010     0.0000000000    -0.0002946400     0.0000000000
 14      0.0317302460     1.5092375580     2.3325773510     0.0000466900     0.0000919400     0.0001160200
 14      3.4756760950     1.5092375580     7.9228731600    -0.0000466900     0.0000919400    -0.0001160200
 14      3.5920876800     7.6960941550     7.8614902260     0.0000859200     0.0001368600    -0.0003864200
 14     -0.0846810620     7.6960941550     2.3939598230    -0.0000859200     0.0001368600     0.0003864200
 14      2.5687796010     6.1414215080     2.3754127370    -0.0000838900    -0.0003672100     0.0002976600
 14      0.9386268780     6.1414215080     7.8800370150     0.0000838900    -0.0003672100    -0.0002976600
 13      0.8161217930     3.0492482460     7.9053259140     0.0001632600     0.0003846000    -0.0007598000
 13      2.6912845480     3.0492482460     2.3501245970    -0.0001632600     0.0003846000     0.0007598000
  8     -0.0266187630     1.4738562180     3.9728801120    -0.0001332400    -0.0004069600     0.0002084200
  8      3.5340251580     1.4738562180     6.2825700910     0.0001332400    -0.0004069600    -0.0002084200
  8      3.5519564290     7.7017503430     6.2361606840     0.0002864400     0.0003751400    -0.0005832200
  8     -0.0445498920     7.7017503430     4.0192898260    -0.0002864400     0.0003751400     0.0005832200
  8      2.6106420170     6.1698152920     4.0010272300    -0.0003106800    -0.0002548000     0.0006328100
  8      0.8967644830     6.1698152920     6.2544232810     0.0003106800    -0.0002548000    -0.0006328100
  8      0.8353810130     3.0601743890     6.1747887860     0.0001461000     0.0003143100    -0.0008457800
  8      2.6720254360     3.0601743890     4.0806611090    -0.0001461000     0.0003143100     0.0008457800
  8      1.5093020220     1.8726393690     1.7541600780     0.0003716700    -0.0002751400    -0.0003254000
  8      1.9981047640     1.8726393690     8.5012896730    -0.0003716700    -0.0002751400     0.0003254000
  8      4.9659525080     9.1866506730     1.7569136810    -0.0004884400     0.0001184600     0.0002228400
  8     -1.4585458150     9.1866506730     8.4985360600     0.0004884400     0.0001184600    -0.0002228400
  8      2.1575401050     7.1280258970     8.4574006920    -0.0002478700     0.0001348300     0.0003364400
  8      1.3498665000     7.1280258970     1.7980492140     0.0002478700     0.0001348300    -0.0003364400
  8      4.0015167870     6.7595091650     1.7837625120     0.0002155800    -0.0002331700    -0.0005774800
  8     -0.4941102600     6.7595091650     8.4716878440    -0.0002155800    -0.0002331700     0.0005774800
  8      2.3432525930     4.6785737100     1.7195642150    -0.0006174400     0.0002710600    -0.0006352000
  8      1.1641537800     4.6785737100     8.5358861410     0.0006174400     0.0002710600     0.0006352000
  8     -0.7471070300     2.5444697540     8.5609368660    -0.0000756200    -0.0000719900     0.0001749900
  8      4.2545135570     2.5444697540     1.6945134910     0.0000756200    -0.0000719900    -0.0001749900
  8     -0.0197374190     4.6426009460     4.0677190720     0.0000882400    -0.0002122600    -0.0007961900
  8      3.5271440780     4.6426009460     6.1877314380    -0.0000882400    -0.0002122600     0.0007961900
  8      2.6757889360     9.2104435960     4.1202844050     0.0004328800     0.0001592300    -0.0000818800
  8      0.8316176180     9.2104435960     6.1351657980    -0.0004328800     0.0001592300     0.0000818800
  1     -0.0105276990     4.5587570270     3.1053737590    -0.0000588900     0.0001041100     0.0002963100
  1      3.5179344120     4.5587570270     7.1500764440     0.0000588900     0.0001041100    -0.0002963100
  1      2.7645530380     0.1331472390     3.1648101690    -0.0003223700    -0.0001660300     0.0002571300
  1      0.7428534100     0.1331472390     7.0906397260     0.0003223700    -0.0001660300    -0.0002571300
 26     -0.8986843700     0.0118091370     5.1277251010     0.0000000000    -0.0000515800     0.0000000000
 CONVCOORD
          44           1
 19      0.0000000000     4.5194805600     0.0000000000
 19      2.6523876470     0.0617785640     0.0000000000
 12     -0.8986843700     3.0368705970     5.1277251010
 12     -0.8986843700     6.1415635200     5.1277251010
 12      1.7537032770     4.5407505160     5.1277251010
 12      1.7537032770     7.7047008230     5.1277251010
 12      1.7537032770     1.5735395910     5.1277251010
 14      0.0317302460     1.5092375580     2.3325773510
 14      3.4756760950     1.5092375580     7.9228731600
 14      3.5920876800     7.6960941550     7.8614902260
 14     -0.0846810620     7.6960941550     2.3939598230
 14      2.5687796010     6.1414215080     2.3754127370
 14      0.9386268780     6.1414215080     7.8800370150
 13      0.8161217930     3.0492482460     7.9053259140
 13      2.6912845480     3.0492482460     2.3501245970
  8     -0.0266187630     1.4738562180     3.9728801120
  8      3.5340251580     1.4738562180     6.2825700910
  8      3.5519564290     7.7017503430     6.2361606840
  8     -0.0445498920     7.7017503430     4.0192898260
  8      2.6106420170     6.1698152920     4.0010272300
  8      0.8967644830     6.1698152920     6.2544232810
  8      0.8353810130     3.0601743890     6.1747887860
  8      2.6720254360     3.0601743890     4.0806611090
  8      1.5093020220     1.8726393690     1.7541600780
  8      1.9981047640     1.8726393690     8.5012896730
  8      4.9659525080     9.1866506730     1.7569136810
  8     -1.4585458150     9.1866506730     8.4985360600
  8      2.1575401050     7.1280258970     8.4574006920
  8      1.3498665000     7.1280258970     1.7980492140
  8      4.0015167870     6.7595091650     1.7837625120
  8     -0.4941102600     6.7595091650     8.4716878440
  8      2.3432525930     4.6785737100     1.7195642150
  8      1.1641537800     4.6785737100     8.5358861410
  8     -0.7471070300     2.5444697540     8.5609368660
  8      4.2545135570     2.5444697540     1.6945134910
  8     -0.0197374190     4.6426009460     4.0677190720
  8      3.5271440780     4.6426009460     6.1877314380
  8      2.6757889360     0.0002901630     4.1202844050
  8      0.8316176180     0.0002901630     6.1351657980
  1     -0.0105276990     4.5587570270     3.1053737590
  1      3.5179344120     4.5587570270     7.1500764440
  1      2.7645530380     0.1331472390     3.1648101690
  1      0.7428534100     0.1331472390     7.0906397260
 26     -0.8986843700     0.0118091370     5.1277251010
 RECIP-PRIMVEC
    0.1885093535   -0.0000000000    0.0330381475

    0.0000000000    0.1085758242   -0.0000000000

    0.0000000000    0.0000000000    0.0975091473

 RECIP-CONVVEC
    0.1885093535   -0.0000000000    0.0330381475

    0.0000000000    0.1085758242   -0.0000000000

    0.0000000000    0.0000000000    0.0975091473

 WIGNER-SEITZ-PRIMCELL
           4
 -0.2652388E+01  0.4605077E+01 -0.4820370E+01  -0.3236021E+00  0.1197710E-15 -0.9461933E+00
 -0.8550185E+00  0.4605077E+01 -0.5435078E+01  -0.3236021E+00  0.1197710E-15 -0.9461933E+00
 -0.8550185E+00 -0.4605077E+01 -0.5435078E+01  -0.3236021E+00  0.1197710E-15 -0.9461933E+00
 -0.2652388E+01 -0.4605077E+01 -0.4820370E+01  -0.3236021E+00  0.1197710E-15 -0.9461933E+00
           4
 -0.2652388E+01  0.4605077E+01 -0.4820370E+01  -0.1000000E+01 -0.0000000E+00 -0.0000000E+00
 -0.2652388E+01 -0.4605077E+01 -0.4820370E+01  -0.1000000E+01 -0.0000000E+00 -0.0000000E+00
 -0.2652388E+01 -0.4605077E+01  0.4820370E+01  -0.1000000E+01 -0.0000000E+00 -0.0000000E+00
 -0.2652388E+01  0.4605077E+01  0.4820370E+01  -0.1000000E+01 -0.0000000E+00 -0.0000000E+00
           6
  0.2652388E+01 -0.4605077E+01  0.4820370E+01  -0.0000000E+00 -0.1000000E+01 -0.5447462E-15
  0.8550185E+00 -0.4605077E+01  0.5435078E+01  -0.0000000E+00 -0.1000000E+01 -0.5447462E-15
 -0.2652388E+01 -0.4605077E+01  0.4820370E+01  -0.0000000E+00 -0.1000000E+01 -0.5447462E-15
 -0.2652388E+01 -0.4605077E+01 -0.4820370E+01  -0.0000000E+00 -0.1000000E+01 -0.5447462E-15
 -0.8550185E+00 -0.4605077E+01 -0.5435078E+01  -0.0000000E+00 -0.1000000E+01 -0.5447462E-15
  0.2652388E+01 -0.4605077E+01 -0.4820370E+01  -0.0000000E+00 -0.1000000E+01 -0.5447462E-15
           4
  0.2652388E+01  0.4605077E+01 -0.4820370E+01   0.1726288E+00  0.1083272E-15 -0.9849870E+00
  0.2652388E+01 -0.4605077E+01 -0.4820370E+01   0.1726288E+00  0.1083272E-15 -0.9849870E+00
 -0.8550185E+00 -0.4605077E+01 -0.5435078E+01   0.1726288E+00  0.1083272E-15 -0.9849870E+00
 -0.8550185E+00  0.4605077E+01 -0.5435078E+01   0.1726288E+00  0.1083272E-15 -0.9849870E+00
           4
  0.8550185E+00  0.4605077E+01  0.5435078E+01  -0.1726288E+00 -0.1124604E-15  0.9849870E+00
 -0.2652388E+01  0.4605077E+01  0.4820370E+01  -0.1726288E+00 -0.1124604E-15  0.9849870E+00
 -0.2652388E+01 -0.4605077E+01  0.4820370E+01  -0.1726288E+00 -0.1124604E-15  0.9849870E+00
  0.8550185E+00 -0.4605077E+01  0.5435078E+01  -0.1726288E+00 -0.1124604E-15  0.9849870E+00
           6
  0.2652388E+01  0.4605077E+01 -0.4820370E+01   0.0000000E+00  0.1000000E+01 -0.5447462E-15
 -0.8550185E+00  0.4605077E+01 -0.5435078E+01   0.0000000E+00  0.1000000E+01 -0.5447462E-15
 -0.2652388E+01  0.4605077E+01 -0.4820370E+01   0.0000000E+00  0.1000000E+01 -0.5447462E-15
 -0.2652388E+01  0.4605077E+01  0.4820370E+01   0.0000000E+00  0.1000000E+01 -0.5447462E-15
  0.8550185E+00  0.4605077E+01  0.5435078E+01   0.0000000E+00  0.1000000E+01 -0.5447462E-15
  0.2652388E+01  0.4605077E+01  0.4820370E+01   0.0000000E+00  0.1000000E+01 -0.5447462E-15
           4
  0.2652388E+01  0.4605077E+01  0.4820370E+01   0.1000000E+01  0.0000000E+00  0.0000000E+00
  0.2652388E+01 -0.4605077E+01  0.4820370E+01   0.1000000E+01  0.0000000E+00  0.0000000E+00
  0.2652388E+01 -0.4605077E+01 -0.4820370E+01   0.1000000E+01  0.0000000E+00  0.0000000E+00
  0.2652388E+01  0.4605077E+01 -0.4820370E+01   0.1000000E+01  0.0000000E+00  0.0000000E+00
           4
  0.8550185E+00 -0.4605077E+01  0.5435078E+01   0.3236021E+00  0.3123458E-15  0.9461933E+00
  0.2652388E+01 -0.4605077E+01  0.4820370E+01   0.3236021E+00  0.3123458E-15  0.9461933E+00
  0.2652388E+01  0.4605077E+01  0.4820370E+01   0.3236021E+00  0.3123458E-15  0.9461933E+00
  0.8550185E+00  0.4605077E+01  0.5435078E+01   0.3236021E+00  0.3123458E-15  0.9461933E+00
 WIGNER-SEITZ-PRIMCELL_END
 WIGNER-SEITZ-CONVCELL
           4
 -0.2652388E+01  0.4605077E+01 -0.4820370E+01  -0.3236021E+00  0.1197710E-15 -0.9461933E+00
 -0.8550185E+00  0.4605077E+01 -0.5435078E+01  -0.3236021E+00  0.1197710E-15 -0.9461933E+00
 -0.8550185E+00 -0.4605077E+01 -0.5435078E+01  -0.3236021E+00  0.1197710E-15 -0.9461933E+00
 -0.2652388E+01 -0.4605077E+01 -0.4820370E+01  -0.3236021E+00  0.1197710E-15 -0.9461933E+00
           4
 -0.2652388E+01  0.4605077E+01 -0.4820370E+01  -0.1000000E+01 -0.0000000E+00 -0.0000000E+00
 -0.2652388E+01 -0.4605077E+01 -0.4820370E+01  -0.1000000E+01 -0.0000000E+00 -0.0000000E+00
 -0.2652388E+01 -0.4605077E+01  0.4820370E+01  -0.1000000E+01 -0.0000000E+00 -0.0000000E+00
 -0.2652388E+01  0.4605077E+01  0.4820370E+01  -0.1000000E+01 -0.0000000E+00 -0.0000000E+00
           6
  0.2652388E+01 -0.4605077E+01  0.4820370E+01  -0.0000000E+00 -0.1000000E+01 -0.5447462E-15
  0.8550185E+00 -0.4605077E+01  0.5435078E+01  -0.0000000E+00 -0.1000000E+01 -0.5447462E-15
 -0.2652388E+01 -0.4605077E+01  0.4820370E+01  -0.0000000E+00 -0.1000000E+01 -0.5447462E-15
 -0.2652388E+01 -0.4605077E+01 -0.4820370E+01  -0.0000000E+00 -0.1000000E+01 -0.5447462E-15
 -0.8550185E+00 -0.4605077E+01 -0.5435078E+01  -0.0000000E+00 -0.1000000E+01 -0.5447462E-15
  0.2652388E+01 -0.4605077E+01 -0.4820370E+01  -0.0000000E+00 -0.1000000E+01 -0.5447462E-15
           4
  0.2652388E+01  0.4605077E+01 -0.4820370E+01   0.1726288E+00  0.1083272E-15 -0.9849870E+00
  0.2652388E+01 -0.4605077E+01 -0.4820370E+01   0.1726288E+00  0.1083272E-15 -0.9849870E+00
 -0.8550185E+00 -0.4605077E+01 -0.5435078E+01   0.1726288E+00  0.1083272E-15 -0.9849870E+00
 -0.8550185E+00  0.4605077E+01 -0.5435078E+01   0.1726288E+00  0.1083272E-15 -0.9849870E+00
           4
  0.8550185E+00  0.4605077E+01  0.5435078E+01  -0.1726288E+00 -0.1124604E-15  0.9849870E+00
 -0.2652388E+01  0.4605077E+01  0.4820370E+01  -0.1726288E+00 -0.1124604E-15  0.9849870E+00
 -0.2652388E+01 -0.4605077E+01  0.4820370E+01  -0.1726288E+00 -0.1124604E-15  0.9849870E+00
  0.8550185E+00 -0.4605077E+01  0.5435078E+01  -0.1726288E+00 -0.1124604E-15  0.9849870E+00
           6
  0.2652388E+01  0.4605077E+01 -0.4820370E+01   0.0000000E+00  0.1000000E+01 -0.5447462E-15
 -0.8550185E+00  0.4605077E+01 -0.5435078E+01   0.0000000E+00  0.1000000E+01 -0.5447462E-15
 -0.2652388E+01  0.4605077E+01 -0.4820370E+01   0.0000000E+00  0.1000000E+01 -0.5447462E-15
 -0.2652388E+01  0.4605077E+01  0.4820370E+01   0.0000000E+00  0.1000000E+01 -0.5447462E-15
  0.8550185E+00  0.4605077E+01  0.5435078E+01   0.0000000E+00  0.1000000E+01 -0.5447462E-15
  0.2652388E+01  0.4605077E+01  0.4820370E+01   0.0000000E+00  0.1000000E+01 -0.5447462E-15
           4
  0.2652388E+01  0.4605077E+01  0.4820370E+01   0.1000000E+01  0.0000000E+00  0.0000000E+00
  0.2652388E+01 -0.4605077E+01  0.4820370E+01   0.1000000E+01  0.0000000E+00  0.0000000E+00
  0.2652388E+01 -0.4605077E+01 -0.4820370E+01   0.1000000E+01  0.0000000E+00  0.0000000E+00
  0.2652388E+01  0.4605077E+01 -0.4820370E+01   0.1000000E+01  0.0000000E+00  0.0000000E+00
           4
  0.8550185E+00 -0.4605077E+01  0.5435078E+01   0.3236021E+00  0.3123458E-15  0.9461933E+00
  0.2652388E+01 -0.4605077E+01  0.4820370E+01   0.3236021E+00  0.3123458E-15  0.9461933E+00
  0.2652388E+01  0.4605077E+01  0.4820370E+01   0.3236021E+00  0.3123458E-15  0.9461933E+00
  0.8550185E+00  0.4605077E+01  0.5435078E+01   0.3236021E+00  0.3123458E-15  0.9461933E+00
 WIGNER-SEITZ-CONVCELL_END
 BRILLOUIN-ZONE-PRIMCELL
           4
  0.9990427E-01  0.5428791E-01 -0.1571643E-01   0.9461933E+00 -0.8579511E-16 -0.3236021E+00
  0.9990427E-01 -0.5428791E-01 -0.1571643E-01   0.9461933E+00 -0.8579511E-16 -0.3236021E+00
  0.8860508E-01 -0.5428791E-01 -0.4875457E-01   0.9461933E+00 -0.8579511E-16 -0.3236021E+00
  0.8860508E-01  0.5428791E-01 -0.4875457E-01   0.9461933E+00 -0.8579511E-16 -0.3236021E+00
           4
 -0.8860508E-01 -0.5428791E-01 -0.4875457E-01  -0.2749681E-16 -0.9015888E-16 -0.1000000E+01
 -0.8860508E-01  0.5428791E-01 -0.4875457E-01  -0.2749681E-16 -0.9015888E-16 -0.1000000E+01
  0.8860508E-01  0.5428791E-01 -0.4875457E-01  -0.2749681E-16 -0.9015888E-16 -0.1000000E+01
  0.8860508E-01 -0.5428791E-01 -0.4875457E-01  -0.2749681E-16 -0.9015888E-16 -0.1000000E+01
           6
  0.8860508E-01 -0.5428791E-01  0.4875457E-01  -0.0000000E+00 -0.1000000E+01  0.0000000E+00
 -0.8860508E-01 -0.5428791E-01  0.4875457E-01  -0.0000000E+00 -0.1000000E+01  0.0000000E+00
 -0.9990427E-01 -0.5428791E-01  0.1571643E-01  -0.0000000E+00 -0.1000000E+01  0.0000000E+00
 -0.8860508E-01 -0.5428791E-01 -0.4875457E-01  -0.0000000E+00 -0.1000000E+01  0.0000000E+00
  0.8860508E-01 -0.5428791E-01 -0.4875457E-01  -0.0000000E+00 -0.1000000E+01  0.0000000E+00
  0.9990427E-01 -0.5428791E-01 -0.1571643E-01  -0.0000000E+00 -0.1000000E+01  0.0000000E+00
           4
  0.8860508E-01 -0.5428791E-01  0.4875457E-01   0.9849870E+00 -0.2288413E-16  0.1726288E+00
  0.9990427E-01 -0.5428791E-01 -0.1571643E-01   0.9849870E+00 -0.2288413E-16  0.1726288E+00
  0.9990427E-01  0.5428791E-01 -0.1571643E-01   0.9849870E+00 -0.2288413E-16  0.1726288E+00
  0.8860508E-01  0.5428791E-01  0.4875457E-01   0.9849870E+00 -0.2288413E-16  0.1726288E+00
           4
 -0.9990427E-01  0.5428791E-01  0.1571643E-01  -0.9849870E+00 -0.1679955E-15 -0.1726288E+00
 -0.8860508E-01  0.5428791E-01 -0.4875457E-01  -0.9849870E+00 -0.1679955E-15 -0.1726288E+00
 -0.8860508E-01 -0.5428791E-01 -0.4875457E-01  -0.9849870E+00 -0.1679955E-15 -0.1726288E+00
 -0.9990427E-01 -0.5428791E-01  0.1571643E-01  -0.9849870E+00 -0.1679955E-15 -0.1726288E+00
           6
  0.9990427E-01  0.5428791E-01 -0.1571643E-01   0.0000000E+00  0.1000000E+01 -0.0000000E+00
  0.8860508E-01  0.5428791E-01 -0.4875457E-01   0.0000000E+00  0.1000000E+01 -0.0000000E+00
 -0.8860508E-01  0.5428791E-01 -0.4875457E-01   0.0000000E+00  0.1000000E+01 -0.0000000E+00
 -0.9990427E-01  0.5428791E-01  0.1571643E-01   0.0000000E+00  0.1000000E+01 -0.0000000E+00
 -0.8860508E-01  0.5428791E-01  0.4875457E-01   0.0000000E+00  0.1000000E+01 -0.0000000E+00
  0.8860508E-01  0.5428791E-01  0.4875457E-01   0.0000000E+00  0.1000000E+01 -0.0000000E+00
           4
  0.8860508E-01 -0.5428791E-01  0.4875457E-01  -0.0000000E+00  0.9015888E-16  0.1000000E+01
  0.8860508E-01  0.5428791E-01  0.4875457E-01  -0.0000000E+00  0.9015888E-16  0.1000000E+01
 -0.8860508E-01  0.5428791E-01  0.4875457E-01  -0.0000000E+00  0.9015888E-16  0.1000000E+01
 -0.8860508E-01 -0.5428791E-01  0.4875457E-01  -0.0000000E+00  0.9015888E-16  0.1000000E+01
           4
 -0.9990427E-01  0.5428791E-01  0.1571643E-01  -0.9461933E+00 -0.8579511E-16  0.3236021E+00
 -0.9990427E-01 -0.5428791E-01  0.1571643E-01  -0.9461933E+00 -0.8579511E-16  0.3236021E+00
 -0.8860508E-01 -0.5428791E-01  0.4875457E-01  -0.9461933E+00 -0.8579511E-16  0.3236021E+00
 -0.8860508E-01  0.5428791E-01  0.4875457E-01  -0.9461933E+00 -0.8579511E-16  0.3236021E+00
 BRILLOUIN-ZONE-PRIMCELL_END
 BRILLOUIN-ZONE-CONVCELL
           4
  0.9990427E-01  0.5428791E-01 -0.1571643E-01   0.9461933E+00 -0.8579511E-16 -0.3236021E+00
  0.9990427E-01 -0.5428791E-01 -0.1571643E-01   0.9461933E+00 -0.8579511E-16 -0.3236021E+00
  0.8860508E-01 -0.5428791E-01 -0.4875457E-01   0.9461933E+00 -0.8579511E-16 -0.3236021E+00
  0.8860508E-01  0.5428791E-01 -0.4875457E-01   0.9461933E+00 -0.8579511E-16 -0.3236021E+00
           4
 -0.8860508E-01 -0.5428791E-01 -0.4875457E-01  -0.2749681E-16 -0.9015888E-16 -0.1000000E+01
 -0.8860508E-01  0.5428791E-01 -0.4875457E-01  -0.2749681E-16 -0.9015888E-16 -0.1000000E+01
  0.8860508E-01  0.5428791E-01 -0.4875457E-01  -0.2749681E-16 -0.9015888E-16 -0.1000000E+01
  0.8860508E-01 -0.5428791E-01 -0.4875457E-01  -0.2749681E-16 -0.9015888E-16 -0.1000000E+01
           6
  0.8860508E-01 -0.5428791E-01  0.4875457E-01  -0.0000000E+00 -0.1000000E+01  0.0000000E+00
 -0.8860508E-01 -0.5428791E-01  0.4875457E-01  -0.0000000E+00 -0.1000000E+01  0.0000000E+00
 -0.9990427E-01 -0.5428791E-01  0.1571643E-01  -0.0000000E+00 -0.1000000E+01  0.0000000E+00
 -0.8860508E-01 -0.5428791E-01 -0.4875457E-01  -0.0000000E+00 -0.1000000E+01  0.0000000E+00
  0.8860508E-01 -0.5428791E-01 -0.4875457E-01  -0.0000000E+00 -0.1000000E+01  0.0000000E+00
  0.9990427E-01 -0.5428791E-01 -0.1571643E-01  -0.0000000E+00 -0.1000000E+01  0.0000000E+00
           4
  0.8860508E-01 -0.5428791E-01  0.4875457E-01   0.9849870E+00 -0.2288413E-16  0.1726288E+00
  0.9990427E-01 -0.5428791E-01 -0.1571643E-01   0.9849870E+00 -0.2288413E-16  0.1726288E+00
  0.9990427E-01  0.5428791E-01 -0.1571643E-01   0.9849870E+00 -0.2288413E-16  0.1726288E+00
  0.8860508E-01  0.5428791E-01  0.4875457E-01   0.9849870E+00 -0.2288413E-16  0.1726288E+00
           4
 -0.9990427E-01  0.5428791E-01  0.1571643E-01  -0.9849870E+00 -0.1679955E-15 -0.1726288E+00
 -0.8860508E-01  0.5428791E-01 -0.4875457E-01  -0.9849870E+00 -0.1679955E-15 -0.1726288E+00
 -0.8860508E-01 -0.5428791E-01 -0.4875457E-01  -0.9849870E+00 -0.1679955E-15 -0.1726288E+00
 -0.9990427E-01 -0.5428791E-01  0.1571643E-01  -0.9849870E+00 -0.1679955E-15 -0.1726288E+00
           6
  0.9990427E-01  0.5428791E-01 -0.1571643E-01   0.0000000E+00  0.1000000E+01 -0.0000000E+00
  0.8860508E-01  0.5428791E-01 -0.4875457E-01   0.0000000E+00  0.1000000E+01 -0.0000000E+00
 -0.8860508E-01  0.5428791E-01 -0.4875457E-01   0.0000000E+00  0.1000000E+01 -0.0000000E+00
 -0.9990427E-01  0.5428791E-01  0.1571643E-01   0.0000000E+00  0.1000000E+01 -0.0000000E+00
 -0.8860508E-01  0.5428791E-01  0.4875457E-01   0.0000000E+00  0.1000000E+01 -0.0000000E+00
  0.8860508E-01  0.5428791E-01  0.4875457E-01   0.0000000E+00  0.1000000E+01 -0.0000000E+00
           4
  0.8860508E-01 -0.5428791E-01  0.4875457E-01  -0.0000000E+00  0.9015888E-16  0.1000000E+01
  0.8860508E-01  0.5428791E-01  0.4875457E-01  -0.0000000E+00  0.9015888E-16  0.1000000E+01
 -0.8860508E-01  0.5428791E-01  0.4875457E-01  -0.0000000E+00  0.9015888E-16  0.1000000E+01
 -0.8860508E-01 -0.5428791E-01  0.4875457E-01  -0.0000000E+00  0.9015888E-16  0.1000000E+01
           4
 -0.9990427E-01  0.5428791E-01  0.1571643E-01  -0.9461933E+00 -0.8579511E-16  0.3236021E+00
 -0.9990427E-01 -0.5428791E-01  0.1571643E-01  -0.9461933E+00 -0.8579511E-16  0.3236021E+00
 -0.8860508E-01 -0.5428791E-01  0.4875457E-01  -0.9461933E+00 -0.8579511E-16  0.3236021E+00
 -0.8860508E-01  0.5428791E-01  0.4875457E-01  -0.9461933E+00 -0.8579511E-16  0.3236021E+00
 BRILLOUIN-ZONE-CONVCELL_END
 ATOMS
   19    0.0000000000    4.5194805600    0.0000000000    0.0000000000   -0.0006692600    0.0000000000
   19    2.6523876470    0.0617785640    0.0000000000    0.0000000000    0.0007262400    0.0000000000
   12   -0.8986843700    3.0368705970    5.1277251010    0.0000000000   -0.0003988700    0.0000000000
   12   -0.8986843700    6.1415635200    5.1277251010    0.0000000000    0.0006149700    0.0000000000
   12    1.7537032770    4.5407505160    5.1277251010    0.0000000000   -0.0006362800    0.0000000000
   12    1.7537032770    7.7047008230    5.1277251010    0.0000000000    0.0005034400    0.0000000000
   12    1.7537032770    1.5735395910    5.1277251010    0.0000000000   -0.0002946400    0.0000000000
   14    0.0317302460    1.5092375580    2.3325773510    0.0000466900    0.0000919400    0.0001160200
   14    3.4756760950    1.5092375580    7.9228731600   -0.0000466900    0.0000919400   -0.0001160200
   14    3.5920876800    7.6960941550    7.8614902260    0.0000859200    0.0001368600   -0.0003864200
   14   -0.0846810620    7.6960941550    2.3939598230   -0.0000859200    0.0001368600    0.0003864200
   14    2.5687796010    6.1414215080    2.3754127370   -0.0000838900   -0.0003672100    0.0002976600
   14    0.9386268780    6.1414215080    7.8800370150    0.0000838900   -0.0003672100   -0.0002976600
   13    0.8161217930    3.0492482460    7.9053259140    0.0001632600    0.0003846000   -0.0007598000
   13    2.6912845480    3.0492482460    2.3501245970   -0.0001632600    0.0003846000    0.0007598000
    8   -0.0266187630    1.4738562180    3.9728801120   -0.0001332400   -0.0004069600    0.0002084200
    8    3.5340251580    1.4738562180    6.2825700910    0.0001332400   -0.0004069600   -0.0002084200
    8    3.5519564290    7.7017503430    6.2361606840    0.0002864400    0.0003751400   -0.0005832200
    8   -0.0445498920    7.7017503430    4.0192898260   -0.0002864400    0.0003751400    0.0005832200
    8    2.6106420170    6.1698152920    4.0010272300   -0.0003106800   -0.0002548000    0.0006328100
    8    0.8967644830    6.1698152920    6.2544232810    0.0003106800   -0.0002548000   -0.0006328100
    8    0.8353810130    3.0601743890    6.1747887860    0.0001461000    0.0003143100   -0.0008457800
    8    2.6720254360    3.0601743890    4.0806611090   -0.0001461000    0.0003143100    0.0008457800
    8    1.5093020220    1.8726393690    1.7541600780    0.0003716700   -0.0002751400   -0.0003254000
    8    1.9981047640    1.8726393690    8.5012896730   -0.0003716700   -0.0002751400    0.0003254000
    8    4.9659525080    9.1866506730    1.7569136810   -0.0004884400    0.0001184600    0.0002228400
    8   -1.4585458150    9.1866506730    8.4985360600    0.0004884400    0.0001184600   -0.0002228400
    8    2.1575401050    7.1280258970    8.4574006920   -0.0002478700    0.0001348300    0.0003364400
    8    1.3498665000    7.1280258970    1.7980492140    0.0002478700    0.0001348300   -0.0003364400
    8    4.0015167870    6.7595091650    1.7837625120    0.0002155800   -0.0002331700   -0.0005774800
    8   -0.4941102600    6.7595091650    8.4716878440   -0.0002155800   -0.0002331700    0.0005774800
    8    2.3432525930    4.6785737100    1.7195642150   -0.0006174400    0.0002710600   -0.0006352000
    8    1.1641537800    4.6785737100    8.5358861410    0.0006174400    0.0002710600    0.0006352000
    8   -0.7471070300    2.5444697540    8.5609368660   -0.0000756200   -0.0000719900    0.0001749900
    8    4.2545135570    2.5444697540    1.6945134910    0.0000756200   -0.0000719900   -0.0001749900
    8   -0.0197374190    4.6426009460    4.0677190720    0.0000882400   -0.0002122600   -0.0007961900
    8    3.5271440780    4.6426009460    6.1877314380   -0.0000882400   -0.0002122600    0.0007961900
    8    2.6757889360    0.0002901630    4.1202844050    0.0004328800    0.0001592300   -0.0000818800
    8    0.8316176180    0.0002901630    6.1351657980   -0.0004328800    0.0001592300    0.0000818800
    1   -0.0105276990    4.5587570270    3.1053737590   -0.0000588900    0.0001041100    0.0002963100
    1    3.5179344120    4.5587570270    7.1500764440    0.0000588900    0.0001041100   -0.0002963100
    1    2.7645530380    0.1331472390    3.1648101690   -0.0003223700   -0.0001660300    0.0002571300
    1    0.7428534100    0.1331472390    7.0906397260    0.0003223700   -0.0001660300   -0.0002571300
   26   -0.8986843700    0.0118091370    5.1277251010    0.0000000000   -0.0000515800    0.0000000000
   19   -1.7973697390    4.5194805600   10.2554481090    0.0000000000   -0.0006692600    0.0000000000
   19    0.8550179080    0.0617785640   10.2554481090    0.0000000000    0.0007262400    0.0000000000
   19    5.3047765600    4.5194805600    0.0000000000    0.0000000000   -0.0006692600    0.0000000000
   12    4.4060921900    3.0368705970    5.1277251010    0.0000000000   -0.0003988700    0.0000000000
   12    4.4060921900    6.1415635200    5.1277251010    0.0000000000    0.0006149700    0.0000000000
   26    4.4060921900    0.0118091370    5.1277251010    0.0000000000   -0.0000515800    0.0000000000
   19    3.5074068210    4.5194805600   10.2554481090    0.0000000000   -0.0006692600    0.0000000000
 FRAMES
1      0.0000000000    0.0000000000    0.0000000000      5.3047765600    0.0000000000    0.0000000000
1      0.0000000000    0.0000000000    0.0000000000      0.0000000000    9.2101534330    0.0000000000
1      0.0000000000    0.0000000000    0.0000000000     -1.7973697390    0.0000000000   10.2554481090
1     -1.7973697390    0.0000000000   10.2554481090      3.5074068210    0.0000000000   10.2554481090
1     -1.7973697390    0.0000000000   10.2554481090     -1.7973697390    9.2101534330   10.2554481090
1      0.0000000000    9.2101534330    0.0000000000      5.3047765600    9.2101534330    0.0000000000
1      0.0000000000    9.2101534330    0.0000000000     -1.7973697390    9.2101534330   10.2554481090
1     -1.7973697390    9.2101534330   10.2554481090      3.5074068210    9.2101534330   10.2554481090
1      5.3047765600    0.0000000000    0.0000000000      5.3047765600    9.2101534330    0.0000000000
1      5.3047765600    0.0000000000    0.0000000000      3.5074068210    0.0000000000   10.2554481090
1      3.5074068210    0.0000000000   10.2554481090      3.5074068210    9.2101534330   10.2554481090
1      5.3047765600    9.2101534330    0.0000000000      3.5074068210    9.2101534330   10.2554481090
