 INFO
nunit      1    1    1
unit   cell
celltype   primcell
shape   parapipedal
 END_INFO
 DIM-GROUP
           3           1
 PRIMVEC
    5.3275145260    0.0000000000    0.0000000000
    0.0000000000    9.2677534550    0.0000000000
   -1.8548584820    0.0000000000   10.2470492100
 CONVVEC
    5.3275145260    0.0000000000    0.0000000000
    0.0000000000    9.2677534550    0.0000000000
   -1.8548584820    0.0000000000   10.2470492100
 PRIMCOORD
          44           1
 19      0.0000000000     4.5778150280     0.0000000000     0.0000000000    -0.0003844700     0.0000000000
 19      2.6637579550     9.2938585210     0.0000000000     0.0000000000     0.0000900900     0.0000000000
 12     -0.9274281560     0.0588997620     5.1235239620     0.0000000000    -0.0002407300     0.0000000000
 12     -0.9274281560     6.1812803010     5.1235239620     0.0000000000     0.0002403500     0.0000000000
 12      1.7363297990     4.5933283290     5.1235239620     0.0000000000     0.0004014000     0.0000000000
 12      1.7363297990     7.7454602180     5.1235239620     0.0000000000    -0.0002738700     0.0000000000
 12      1.7363297990     1.5797017330     5.1235239620     0.0000000000    -0.0001381200     0.0000000000
 14      0.0791943060     1.5131407230     2.3066988940    -0.0000368900    -0.0001132500    -0.0001967700
 14      3.3934650910     1.5131407230     7.9403494900     0.0000368900    -0.0001132500     0.0001967700
 14      3.5498375650     7.7333253880     7.8608330570     0.0000770500    -0.0002077600     0.0003581700
 14     -0.0771779670     7.7333253880     2.3862148660    -0.0000770500    -0.0002077600    -0.0003581700
 14      2.5866856990     6.1764056310     2.3715796240    -0.0000602700     0.0001498600    -0.0003531200
 14      0.8859737110     6.1764056310     7.8754684530     0.0000602700     0.0001498600     0.0003531200
 13      0.7271449520     3.0639781500     7.9114030910     0.0001076500     0.0000449300     0.0001439000
 13      2.7455148280     3.0639781500     2.3356446780    -0.0001076500     0.0000449300    -0.0001439000
  8      0.0184885010     1.4608127440     3.9358459180    -0.0000291700     0.0003014900    -0.0002763300
  8      3.4541709080     1.4608127440     6.3112026100     0.0000291700     0.0003014900     0.0002763300
  8      3.5266806220     7.7364912280     6.2403977380     0.0002630900    -0.0001443300     0.0004129700
  8     -0.0540210000     7.7364912280     4.0066504920    -0.0002630900    -0.0001443300    -0.0004129700
  8      2.6175046930     6.2055810000     3.9998391730    -0.0000018000     0.0001255800    -0.0004500000
  8      0.8551546900     6.2055810000     6.2472090580     0.0000018000     0.0001255800     0.0004500000
  8      0.7980082520     3.0880321290     6.1636648040     0.0000211600    -0.0000066900     0.0002375300
  8      2.6746514000     3.0880321290     4.0833828210    -0.0000211600    -0.0000066900    -0.0002375300
  8      1.5597502070     1.8917884520     1.7332615060    -0.0000198100     0.0002389400     0.0002758800
  8      1.9129096070     1.8917884520     8.5137861100     0.0000198100     0.0002389400    -0.0002758800
  8     -0.2668602510     9.2356608010     1.7372083050    -0.0001816500     0.0000347600     0.0002283800
  8      3.7395198210     9.2356608010     8.5098397720     0.0001816500     0.0000347600    -0.0002283800
  8      2.1327640540     7.1206199640     8.4630574140    -0.0001198800     0.0002922300    -0.0002894200
  8      1.3398955440     7.1206199640     1.7839905090     0.0001198800     0.0002922300     0.0002894200
  8      3.9967187640     6.8418453560     1.7741587370    -0.0000602400    -0.0001296300     0.0001686800
  8     -0.5240592460     6.8418453560     8.4728891860     0.0000602400    -0.0001296300    -0.0001686800
  8      2.4158799690     4.7014126710     1.7200002580    -0.0003375100    -0.0003178000     0.0003072400
  8      1.0567793140     4.7014126710     8.5270476650     0.0003375100    -0.0003178000    -0.0003072400
  8     -0.8373873420     2.5487435100     8.5580989720     0.0004404700    -0.0000210200    -0.0004182000
  8      4.3100471740     2.5487435100     1.6889489510    -0.0004404700    -0.0000210200     0.0004182000
  8     -0.0000453260     4.7416109870     4.0288098870    -0.0001622500    -0.0001454900     0.0000506000
  8      3.4727047890     4.7416109870     6.2182383440     0.0001622500    -0.0001454900    -0.0000506000
  8      2.6409508380     9.2634025890     4.0877723210    -0.0000386600     0.0001548600     0.0005890200
  8      0.8317089150     9.2634025890     6.1592756020     0.0000386600     0.0001548600    -0.0005890200
  1      0.0047634940     4.5489080320     3.0818969120    -0.0000802600     0.0002213300     0.0001853600
  1      3.4678962510     4.5489080320     7.1651513180     0.0000802600     0.0002213300    -0.0001853600
  1      2.6076601170     0.1369646650     3.1319633730    -0.0001362500    -0.0002633700     0.0002448000
  1      0.8649994810     0.1369646650     7.1150845500     0.0001362500    -0.0002633700    -0.0002448000
 26     -0.9274281560     3.1104709240     5.1235239620     0.0000000000    -0.0001239300     0.0000000000
 CONVCOORD
          44           1
 19      0.0000000000     4.5778150280     0.0000000000
 19      2.6637579550     0.0261050660     0.0000000000
 12     -0.9274281560     0.0588997620     5.1235239620
 12     -0.9274281560     6.1812803010     5.1235239620
 12      1.7363297990     4.5933283290     5.1235239620
 12      1.7363297990     7.7454602180     5.1235239620
 12      1.7363297990     1.5797017330     5.1235239620
 14      0.0791943060     1.5131407230     2.3066988940
 14      3.3934650910     1.5131407230     7.9403494900
 14      3.5498375650     7.7333253880     7.8608330570
 14     -0.0771779670     7.7333253880     2.3862148660
 14      2.5866856990     6.1764056310     2.3715796240
 14      0.8859737110     6.1764056310     7.8754684530
 13      0.7271449520     3.0639781500     7.9114030910
 13      2.7455148280     3.0639781500     2.3356446780
  8      0.0184885010     1.4608127440     3.9358459180
  8      3.4541709080     1.4608127440     6.3112026100
  8      3.5266806220     7.7364912280     6.2403977380
  8     -0.0540210000     7.7364912280     4.0066504920
  8      2.6175046930     6.2055810000     3.9998391730
  8      0.8551546900     6.2055810000     6.2472090580
  8      0.7980082520     3.0880321290     6.1636648040
  8      2.6746514000     3.0880321290     4.0833828210
  8      1.5597502070     1.8917884520     1.7332615060
  8      1.9129096070     1.8917884520     8.5137861100
  8     -0.2668602510     9.2356608010     1.7372083050
  8      3.7395198210     9.2356608010     8.5098397720
  8      2.1327640540     7.1206199640     8.4630574140
  8      1.3398955440     7.1206199640     1.7839905090
  8      3.9967187640     6.8418453560     1.7741587370
  8     -0.5240592460     6.8418453560     8.4728891860
  8      2.4158799690     4.7014126710     1.7200002580
  8      1.0567793140     4.7014126710     8.5270476650
  8     -0.8373873420     2.5487435100     8.5580989720
  8      4.3100471740     2.5487435100     1.6889489510
  8     -0.0000453260     4.7416109870     4.0288098870
  8      3.4727047890     4.7416109870     6.2182383440
  8      2.6409508380     9.2634025890     4.0877723210
  8      0.8317089150     9.2634025890     6.1592756020
  1      0.0047634940     4.5489080320     3.0818969120
  1      3.4678962510     4.5489080320     7.1651513180
  1      2.6076601170     0.1369646650     3.1319633730
  1      0.8649994810     0.1369646650     7.1150845500
 26     -0.9274281560     3.1104709240     5.1235239620
 RECIP-PRIMVEC
    0.1877047909   -0.0000000000    0.0339771788

    0.0000000000    0.1079010145   -0.0000000000

    0.0000000000    0.0000000000    0.0975890697

 RECIP-CONVVEC
    0.1877047909   -0.0000000000    0.0339771788

    0.0000000000    0.1079010145   -0.0000000000

    0.0000000000    0.0000000000    0.0975890697

 WIGNER-SEITZ-PRIMCELL
           4
 -0.2663757E+01  0.4633877E+01 -0.4809225E+01  -0.3209630E+00  0.0000000E+00 -0.9470917E+00
 -0.8088988E+00  0.4633877E+01 -0.5437824E+01  -0.3209630E+00  0.0000000E+00 -0.9470917E+00
 -0.8088988E+00 -0.4633877E+01 -0.5437824E+01  -0.3209630E+00  0.0000000E+00 -0.9470917E+00
 -0.2663757E+01 -0.4633877E+01 -0.4809225E+01  -0.3209630E+00  0.0000000E+00 -0.9470917E+00
           4
 -0.2663757E+01  0.4633877E+01 -0.4809225E+01  -0.1000000E+01 -0.4791768E-16 -0.8849543E-32
 -0.2663757E+01 -0.4633877E+01 -0.4809225E+01  -0.1000000E+01 -0.4791768E-16 -0.8849543E-32
 -0.2663757E+01 -0.4633877E+01  0.4809225E+01  -0.1000000E+01 -0.4791768E-16 -0.8849543E-32
 -0.2663757E+01  0.4633877E+01  0.4809225E+01  -0.1000000E+01 -0.4791768E-16 -0.8849543E-32
           6
  0.8088988E+00 -0.4633877E+01  0.5437824E+01   0.0000000E+00 -0.1000000E+01 -0.1063637E-15
 -0.2663757E+01 -0.4633877E+01  0.4809225E+01   0.0000000E+00 -0.1000000E+01 -0.1063637E-15
 -0.2663757E+01 -0.4633877E+01 -0.4809225E+01   0.0000000E+00 -0.1000000E+01 -0.1063637E-15
 -0.8088988E+00 -0.4633877E+01 -0.5437824E+01   0.0000000E+00 -0.1000000E+01 -0.1063637E-15
  0.2663757E+01 -0.4633877E+01 -0.4809225E+01   0.0000000E+00 -0.1000000E+01 -0.1063637E-15
  0.2663757E+01 -0.4633877E+01  0.4809225E+01   0.0000000E+00 -0.1000000E+01 -0.1063637E-15
           4
  0.2663757E+01 -0.4633877E+01 -0.4809225E+01   0.1781193E+00  0.4395035E-16 -0.9840089E+00
 -0.8088988E+00 -0.4633877E+01 -0.5437824E+01   0.1781193E+00  0.4395035E-16 -0.9840089E+00
 -0.8088988E+00  0.4633877E+01 -0.5437824E+01   0.1781193E+00  0.4395035E-16 -0.9840089E+00
  0.2663757E+01  0.4633877E+01 -0.4809225E+01   0.1781193E+00  0.4395035E-16 -0.9840089E+00
           4
  0.8088988E+00  0.4633877E+01  0.5437824E+01  -0.1781193E+00 -0.3478900E-16  0.9840089E+00
 -0.2663757E+01  0.4633877E+01  0.4809225E+01  -0.1781193E+00 -0.3478900E-16  0.9840089E+00
 -0.2663757E+01 -0.4633877E+01  0.4809225E+01  -0.1781193E+00 -0.3478900E-16  0.9840089E+00
  0.8088988E+00 -0.4633877E+01  0.5437824E+01  -0.1781193E+00 -0.3478900E-16  0.9840089E+00
           6
  0.2663757E+01  0.4633877E+01 -0.4809225E+01   0.0000000E+00  0.1000000E+01 -0.0000000E+00
 -0.8088988E+00  0.4633877E+01 -0.5437824E+01   0.0000000E+00  0.1000000E+01 -0.0000000E+00
 -0.2663757E+01  0.4633877E+01 -0.4809225E+01   0.0000000E+00  0.1000000E+01 -0.0000000E+00
 -0.2663757E+01  0.4633877E+01  0.4809225E+01   0.0000000E+00  0.1000000E+01 -0.0000000E+00
  0.8088988E+00  0.4633877E+01  0.5437824E+01   0.0000000E+00  0.1000000E+01 -0.0000000E+00
  0.2663757E+01  0.4633877E+01  0.4809225E+01   0.0000000E+00  0.1000000E+01 -0.0000000E+00
           4
  0.2663757E+01  0.4633877E+01  0.4809225E+01   0.1000000E+01  0.4791768E-16 -0.4424772E-32
  0.2663757E+01 -0.4633877E+01  0.4809225E+01   0.1000000E+01  0.4791768E-16 -0.4424772E-32
  0.2663757E+01 -0.4633877E+01 -0.4809225E+01   0.1000000E+01  0.4791768E-16 -0.4424772E-32
  0.2663757E+01  0.4633877E+01 -0.4809225E+01   0.1000000E+01  0.4791768E-16 -0.4424772E-32
           4
  0.8088988E+00 -0.4633877E+01  0.5437824E+01   0.3209630E+00  0.9019750E-16  0.9470917E+00
  0.2663757E+01 -0.4633877E+01  0.4809225E+01   0.3209630E+00  0.9019750E-16  0.9470917E+00
  0.2663757E+01  0.4633877E+01  0.4809225E+01   0.3209630E+00  0.9019750E-16  0.9470917E+00
  0.8088988E+00  0.4633877E+01  0.5437824E+01   0.3209630E+00  0.9019750E-16  0.9470917E+00
 WIGNER-SEITZ-PRIMCELL_END
 WIGNER-SEITZ-CONVCELL
           4
 -0.2663757E+01  0.4633877E+01 -0.4809225E+01  -0.3209630E+00  0.0000000E+00 -0.9470917E+00
 -0.8088988E+00  0.4633877E+01 -0.5437824E+01  -0.3209630E+00  0.0000000E+00 -0.9470917E+00
 -0.8088988E+00 -0.4633877E+01 -0.5437824E+01  -0.3209630E+00  0.0000000E+00 -0.9470917E+00
 -0.2663757E+01 -0.4633877E+01 -0.4809225E+01  -0.3209630E+00  0.0000000E+00 -0.9470917E+00
           4
 -0.2663757E+01  0.4633877E+01 -0.4809225E+01  -0.1000000E+01 -0.4791768E-16 -0.8849543E-32
 -0.2663757E+01 -0.4633877E+01 -0.4809225E+01  -0.1000000E+01 -0.4791768E-16 -0.8849543E-32
 -0.2663757E+01 -0.4633877E+01  0.4809225E+01  -0.1000000E+01 -0.4791768E-16 -0.8849543E-32
 -0.2663757E+01  0.4633877E+01  0.4809225E+01  -0.1000000E+01 -0.4791768E-16 -0.8849543E-32
           6
  0.8088988E+00 -0.4633877E+01  0.5437824E+01   0.0000000E+00 -0.1000000E+01 -0.1063637E-15
 -0.2663757E+01 -0.4633877E+01  0.4809225E+01   0.0000000E+00 -0.1000000E+01 -0.1063637E-15
 -0.2663757E+01 -0.4633877E+01 -0.4809225E+01   0.0000000E+00 -0.1000000E+01 -0.1063637E-15
 -0.8088988E+00 -0.4633877E+01 -0.5437824E+01   0.0000000E+00 -0.1000000E+01 -0.1063637E-15
  0.2663757E+01 -0.4633877E+01 -0.4809225E+01   0.0000000E+00 -0.1000000E+01 -0.1063637E-15
  0.2663757E+01 -0.4633877E+01  0.4809225E+01   0.0000000E+00 -0.1000000E+01 -0.1063637E-15
           4
  0.2663757E+01 -0.4633877E+01 -0.4809225E+01   0.1781193E+00  0.4395035E-16 -0.9840089E+00
 -0.8088988E+00 -0.4633877E+01 -0.5437824E+01   0.1781193E+00  0.4395035E-16 -0.9840089E+00
 -0.8088988E+00  0.4633877E+01 -0.5437824E+01   0.1781193E+00  0.4395035E-16 -0.9840089E+00
  0.2663757E+01  0.4633877E+01 -0.4809225E+01   0.1781193E+00  0.4395035E-16 -0.9840089E+00
           4
  0.8088988E+00  0.4633877E+01  0.5437824E+01  -0.1781193E+00 -0.3478900E-16  0.9840089E+00
 -0.2663757E+01  0.4633877E+01  0.4809225E+01  -0.1781193E+00 -0.3478900E-16  0.9840089E+00
 -0.2663757E+01 -0.4633877E+01  0.4809225E+01  -0.1781193E+00 -0.3478900E-16  0.9840089E+00
  0.8088988E+00 -0.4633877E+01  0.5437824E+01  -0.1781193E+00 -0.3478900E-16  0.9840089E+00
           6
  0.2663757E+01  0.4633877E+01 -0.4809225E+01   0.0000000E+00  0.1000000E+01 -0.0000000E+00
 -0.8088988E+00  0.4633877E+01 -0.5437824E+01   0.0000000E+00  0.1000000E+01 -0.0000000E+00
 -0.2663757E+01  0.4633877E+01 -0.4809225E+01   0.0000000E+00  0.1000000E+01 -0.0000000E+00
 -0.2663757E+01  0.4633877E+01  0.4809225E+01   0.0000000E+00  0.1000000E+01 -0.0000000E+00
  0.8088988E+00  0.4633877E+01  0.5437824E+01   0.0000000E+00  0.1000000E+01 -0.0000000E+00
  0.2663757E+01  0.4633877E+01  0.4809225E+01   0.0000000E+00  0.1000000E+01 -0.0000000E+00
           4
  0.2663757E+01  0.4633877E+01  0.4809225E+01   0.1000000E+01  0.4791768E-16 -0.4424772E-32
  0.2663757E+01 -0.4633877E+01  0.4809225E+01   0.1000000E+01  0.4791768E-16 -0.4424772E-32
  0.2663757E+01 -0.4633877E+01 -0.4809225E+01   0.1000000E+01  0.4791768E-16 -0.4424772E-32
  0.2663757E+01  0.4633877E+01 -0.4809225E+01   0.1000000E+01  0.4791768E-16 -0.4424772E-32
           4
  0.8088988E+00 -0.4633877E+01  0.5437824E+01   0.3209630E+00  0.9019750E-16  0.9470917E+00
  0.2663757E+01 -0.4633877E+01  0.4809225E+01   0.3209630E+00  0.9019750E-16  0.9470917E+00
  0.2663757E+01  0.4633877E+01  0.4809225E+01   0.3209630E+00  0.9019750E-16  0.9470917E+00
  0.8088988E+00  0.4633877E+01  0.5437824E+01   0.3209630E+00  0.9019750E-16  0.9470917E+00
 WIGNER-SEITZ-CONVCELL_END
 BRILLOUIN-ZONE-PRIMCELL
           4
  0.9960971E-01  0.5395051E-01 -0.1481736E-01   0.9470917E+00  0.2800848E-16 -0.3209630E+00
  0.9960971E-01 -0.5395051E-01 -0.1481736E-01   0.9470917E+00  0.2800848E-16 -0.3209630E+00
  0.8809508E-01 -0.5395051E-01 -0.4879453E-01   0.9470917E+00  0.2800848E-16 -0.3209630E+00
  0.8809508E-01  0.5395051E-01 -0.4879453E-01   0.9470917E+00  0.2800848E-16 -0.3209630E+00
           4
 -0.8809508E-01 -0.5395051E-01 -0.4879453E-01   0.6343358E-16  0.9124795E-16 -0.1000000E+01
 -0.8809508E-01  0.5395051E-01 -0.4879453E-01   0.6343358E-16  0.9124795E-16 -0.1000000E+01
  0.8809508E-01  0.5395051E-01 -0.4879453E-01   0.6343358E-16  0.9124795E-16 -0.1000000E+01
  0.8809508E-01 -0.5395051E-01 -0.4879453E-01   0.6343358E-16  0.9124795E-16 -0.1000000E+01
           6
  0.8809508E-01 -0.5395051E-01  0.4879453E-01   0.0000000E+00 -0.1000000E+01 -0.2897753E-15
 -0.8809508E-01 -0.5395051E-01  0.4879453E-01   0.0000000E+00 -0.1000000E+01 -0.2897753E-15
 -0.9960971E-01 -0.5395051E-01  0.1481736E-01   0.0000000E+00 -0.1000000E+01 -0.2897753E-15
 -0.8809508E-01 -0.5395051E-01 -0.4879453E-01   0.0000000E+00 -0.1000000E+01 -0.2897753E-15
  0.8809508E-01 -0.5395051E-01 -0.4879453E-01   0.0000000E+00 -0.1000000E+01 -0.2897753E-15
  0.9960971E-01 -0.5395051E-01 -0.1481736E-01   0.0000000E+00 -0.1000000E+01 -0.2897753E-15
           4
  0.8809508E-01 -0.5395051E-01  0.4879453E-01   0.9840089E+00 -0.1048510E-15  0.1781193E+00
  0.9960971E-01 -0.5395051E-01 -0.1481736E-01   0.9840089E+00 -0.1048510E-15  0.1781193E+00
  0.9960971E-01  0.5395051E-01 -0.1481736E-01   0.9840089E+00 -0.1048510E-15  0.1781193E+00
  0.8809508E-01  0.5395051E-01  0.4879453E-01   0.9840089E+00 -0.1048510E-15  0.1781193E+00
           4
 -0.8809508E-01  0.5395051E-01 -0.4879453E-01  -0.9840089E+00  0.2797808E-15 -0.1781193E+00
 -0.8809508E-01 -0.5395051E-01 -0.4879453E-01  -0.9840089E+00  0.2797808E-15 -0.1781193E+00
 -0.9960971E-01 -0.5395051E-01  0.1481736E-01  -0.9840089E+00  0.2797808E-15 -0.1781193E+00
 -0.9960971E-01  0.5395051E-01  0.1481736E-01  -0.9840089E+00  0.2797808E-15 -0.1781193E+00
           6
  0.9960971E-01  0.5395051E-01 -0.1481736E-01   0.0000000E+00  0.1000000E+01 -0.0000000E+00
  0.8809508E-01  0.5395051E-01 -0.4879453E-01   0.0000000E+00  0.1000000E+01 -0.0000000E+00
 -0.8809508E-01  0.5395051E-01 -0.4879453E-01   0.0000000E+00  0.1000000E+01 -0.0000000E+00
 -0.9960971E-01  0.5395051E-01  0.1481736E-01   0.0000000E+00  0.1000000E+01 -0.0000000E+00
 -0.8809508E-01  0.5395051E-01  0.4879453E-01   0.0000000E+00  0.1000000E+01 -0.0000000E+00
  0.8809508E-01  0.5395051E-01  0.4879453E-01   0.0000000E+00  0.1000000E+01 -0.0000000E+00
           4
  0.8809508E-01 -0.5395051E-01  0.4879453E-01  -0.0000000E+00 -0.0000000E+00  0.1000000E+01
  0.8809508E-01  0.5395051E-01  0.4879453E-01  -0.0000000E+00 -0.0000000E+00  0.1000000E+01
 -0.8809508E-01  0.5395051E-01  0.4879453E-01  -0.0000000E+00 -0.0000000E+00  0.1000000E+01
 -0.8809508E-01 -0.5395051E-01  0.4879453E-01  -0.0000000E+00 -0.0000000E+00  0.1000000E+01
           4
 -0.9960971E-01  0.5395051E-01  0.1481736E-01  -0.9470917E+00  0.2870869E-15  0.3209630E+00
 -0.9960971E-01 -0.5395051E-01  0.1481736E-01  -0.9470917E+00  0.2870869E-15  0.3209630E+00
 -0.8809508E-01 -0.5395051E-01  0.4879453E-01  -0.9470917E+00  0.2870869E-15  0.3209630E+00
 -0.8809508E-01  0.5395051E-01  0.4879453E-01  -0.9470917E+00  0.2870869E-15  0.3209630E+00
 BRILLOUIN-ZONE-PRIMCELL_END
 BRILLOUIN-ZONE-CONVCELL
           4
  0.9960971E-01  0.5395051E-01 -0.1481736E-01   0.9470917E+00  0.2800848E-16 -0.3209630E+00
  0.9960971E-01 -0.5395051E-01 -0.1481736E-01   0.9470917E+00  0.2800848E-16 -0.3209630E+00
  0.8809508E-01 -0.5395051E-01 -0.4879453E-01   0.9470917E+00  0.2800848E-16 -0.3209630E+00
  0.8809508E-01  0.5395051E-01 -0.4879453E-01   0.9470917E+00  0.2800848E-16 -0.3209630E+00
           4
 -0.8809508E-01 -0.5395051E-01 -0.4879453E-01   0.6343358E-16  0.9124795E-16 -0.1000000E+01
 -0.8809508E-01  0.5395051E-01 -0.4879453E-01   0.6343358E-16  0.9124795E-16 -0.1000000E+01
  0.8809508E-01  0.5395051E-01 -0.4879453E-01   0.6343358E-16  0.9124795E-16 -0.1000000E+01
  0.8809508E-01 -0.5395051E-01 -0.4879453E-01   0.6343358E-16  0.9124795E-16 -0.1000000E+01
           6
  0.8809508E-01 -0.5395051E-01  0.4879453E-01   0.0000000E+00 -0.1000000E+01 -0.2897753E-15
 -0.8809508E-01 -0.5395051E-01  0.4879453E-01   0.0000000E+00 -0.1000000E+01 -0.2897753E-15
 -0.9960971E-01 -0.5395051E-01  0.1481736E-01   0.0000000E+00 -0.1000000E+01 -0.2897753E-15
 -0.8809508E-01 -0.5395051E-01 -0.4879453E-01   0.0000000E+00 -0.1000000E+01 -0.2897753E-15
  0.8809508E-01 -0.5395051E-01 -0.4879453E-01   0.0000000E+00 -0.1000000E+01 -0.2897753E-15
  0.9960971E-01 -0.5395051E-01 -0.1481736E-01   0.0000000E+00 -0.1000000E+01 -0.2897753E-15
           4
  0.8809508E-01 -0.5395051E-01  0.4879453E-01   0.9840089E+00 -0.1048510E-15  0.1781193E+00
  0.9960971E-01 -0.5395051E-01 -0.1481736E-01   0.9840089E+00 -0.1048510E-15  0.1781193E+00
  0.9960971E-01  0.5395051E-01 -0.1481736E-01   0.9840089E+00 -0.1048510E-15  0.1781193E+00
  0.8809508E-01  0.5395051E-01  0.4879453E-01   0.9840089E+00 -0.1048510E-15  0.1781193E+00
           4
 -0.8809508E-01  0.5395051E-01 -0.4879453E-01  -0.9840089E+00  0.2797808E-15 -0.1781193E+00
 -0.8809508E-01 -0.5395051E-01 -0.4879453E-01  -0.9840089E+00  0.2797808E-15 -0.1781193E+00
 -0.9960971E-01 -0.5395051E-01  0.1481736E-01  -0.9840089E+00  0.2797808E-15 -0.1781193E+00
 -0.9960971E-01  0.5395051E-01  0.1481736E-01  -0.9840089E+00  0.2797808E-15 -0.1781193E+00
           6
  0.9960971E-01  0.5395051E-01 -0.1481736E-01   0.0000000E+00  0.1000000E+01 -0.0000000E+00
  0.8809508E-01  0.5395051E-01 -0.4879453E-01   0.0000000E+00  0.1000000E+01 -0.0000000E+00
 -0.8809508E-01  0.5395051E-01 -0.4879453E-01   0.0000000E+00  0.1000000E+01 -0.0000000E+00
 -0.9960971E-01  0.5395051E-01  0.1481736E-01   0.0000000E+00  0.1000000E+01 -0.0000000E+00
 -0.8809508E-01  0.5395051E-01  0.4879453E-01   0.0000000E+00  0.1000000E+01 -0.0000000E+00
  0.8809508E-01  0.5395051E-01  0.4879453E-01   0.0000000E+00  0.1000000E+01 -0.0000000E+00
           4
  0.8809508E-01 -0.5395051E-01  0.4879453E-01  -0.0000000E+00 -0.0000000E+00  0.1000000E+01
  0.8809508E-01  0.5395051E-01  0.4879453E-01  -0.0000000E+00 -0.0000000E+00  0.1000000E+01
 -0.8809508E-01  0.5395051E-01  0.4879453E-01  -0.0000000E+00 -0.0000000E+00  0.1000000E+01
 -0.8809508E-01 -0.5395051E-01  0.4879453E-01  -0.0000000E+00 -0.0000000E+00  0.1000000E+01
           4
 -0.9960971E-01  0.5395051E-01  0.1481736E-01  -0.9470917E+00  0.2870869E-15  0.3209630E+00
 -0.9960971E-01 -0.5395051E-01  0.1481736E-01  -0.9470917E+00  0.2870869E-15  0.3209630E+00
 -0.8809508E-01 -0.5395051E-01  0.4879453E-01  -0.9470917E+00  0.2870869E-15  0.3209630E+00
 -0.8809508E-01  0.5395051E-01  0.4879453E-01  -0.9470917E+00  0.2870869E-15  0.3209630E+00
 BRILLOUIN-ZONE-CONVCELL_END
 ATOMS
   19    0.0000000000    4.5778150280    0.0000000000    0.0000000000   -0.0003844700    0.0000000000
   19    2.6637579550    0.0261050660    0.0000000000    0.0000000000    0.0000900900    0.0000000000
   12   -0.9274281560    0.0588997620    5.1235239620    0.0000000000   -0.0002407300    0.0000000000
   12   -0.9274281560    6.1812803010    5.1235239620    0.0000000000    0.0002403500    0.0000000000
   12    1.7363297990    4.5933283290    5.1235239620    0.0000000000    0.0004014000    0.0000000000
   12    1.7363297990    7.7454602180    5.1235239620    0.0000000000   -0.0002738700    0.0000000000
   12    1.7363297990    1.5797017330    5.1235239620    0.0000000000   -0.0001381200    0.0000000000
   14    0.0791943060    1.5131407230    2.3066988940   -0.0000368900   -0.0001132500   -0.0001967700
   14    3.3934650910    1.5131407230    7.9403494900    0.0000368900   -0.0001132500    0.0001967700
   14    3.5498375650    7.7333253880    7.8608330570    0.0000770500   -0.0002077600    0.0003581700
   14   -0.0771779670    7.7333253880    2.3862148660   -0.0000770500   -0.0002077600   -0.0003581700
   14    2.5866856990    6.1764056310    2.3715796240   -0.0000602700    0.0001498600   -0.0003531200
   14    0.8859737110    6.1764056310    7.8754684530    0.0000602700    0.0001498600    0.0003531200
   13    0.7271449520    3.0639781500    7.9114030910    0.0001076500    0.0000449300    0.0001439000
   13    2.7455148280    3.0639781500    2.3356446780   -0.0001076500    0.0000449300   -0.0001439000
    8    0.0184885010    1.4608127440    3.9358459180   -0.0000291700    0.0003014900   -0.0002763300
    8    3.4541709080    1.4608127440    6.3112026100    0.0000291700    0.0003014900    0.0002763300
    8    3.5266806220    7.7364912280    6.2403977380    0.0002630900   -0.0001443300    0.0004129700
    8   -0.0540210000    7.7364912280    4.0066504920   -0.0002630900   -0.0001443300   -0.0004129700
    8    2.6175046930    6.2055810000    3.9998391730   -0.0000018000    0.0001255800   -0.0004500000
    8    0.8551546900    6.2055810000    6.2472090580    0.0000018000    0.0001255800    0.0004500000
    8    0.7980082520    3.0880321290    6.1636648040    0.0000211600   -0.0000066900    0.0002375300
    8    2.6746514000    3.0880321290    4.0833828210   -0.0000211600   -0.0000066900   -0.0002375300
    8    1.5597502070    1.8917884520    1.7332615060   -0.0000198100    0.0002389400    0.0002758800
    8    1.9129096070    1.8917884520    8.5137861100    0.0000198100    0.0002389400   -0.0002758800
    8   -0.2668602510    9.2356608010    1.7372083050   -0.0001816500    0.0000347600    0.0002283800
    8    3.7395198210    9.2356608010    8.5098397720    0.0001816500    0.0000347600   -0.0002283800
    8    2.1327640540    7.1206199640    8.4630574140   -0.0001198800    0.0002922300   -0.0002894200
    8    1.3398955440    7.1206199640    1.7839905090    0.0001198800    0.0002922300    0.0002894200
    8    3.9967187640    6.8418453560    1.7741587370   -0.0000602400   -0.0001296300    0.0001686800
    8   -0.5240592460    6.8418453560    8.4728891860    0.0000602400   -0.0001296300   -0.0001686800
    8    2.4158799690    4.7014126710    1.7200002580   -0.0003375100   -0.0003178000    0.0003072400
    8    1.0567793140    4.7014126710    8.5270476650    0.0003375100   -0.0003178000   -0.0003072400
    8   -0.8373873420    2.5487435100    8.5580989720    0.0004404700   -0.0000210200   -0.0004182000
    8    4.3100471740    2.5487435100    1.6889489510   -0.0004404700   -0.0000210200    0.0004182000
    8   -0.0000453260    4.7416109870    4.0288098870   -0.0001622500   -0.0001454900    0.0000506000
    8    3.4727047890    4.7416109870    6.2182383440    0.0001622500   -0.0001454900   -0.0000506000
    8    2.6409508380    9.2634025890    4.0877723210   -0.0000386600    0.0001548600    0.0005890200
    8    0.8317089150    9.2634025890    6.1592756020    0.0000386600    0.0001548600   -0.0005890200
    1    0.0047634940    4.5489080320    3.0818969120   -0.0000802600    0.0002213300    0.0001853600
    1    3.4678962510    4.5489080320    7.1651513180    0.0000802600    0.0002213300   -0.0001853600
    1    2.6076601170    0.1369646650    3.1319633730   -0.0001362500   -0.0002633700    0.0002448000
    1    0.8649994810    0.1369646650    7.1150845500    0.0001362500   -0.0002633700   -0.0002448000
   26   -0.9274281560    3.1104709240    5.1235239620    0.0000000000   -0.0001239300    0.0000000000
   19   -1.8548584820    4.5778150280   10.2470492100    0.0000000000   -0.0003844700    0.0000000000
   19    0.8088994730    0.0261050660   10.2470492100    0.0000000000    0.0000900900    0.0000000000
   19    5.3275145260    4.5778150280    0.0000000000    0.0000000000   -0.0003844700    0.0000000000
   12    4.4000863700    0.0588997620    5.1235239620    0.0000000000   -0.0002407300    0.0000000000
   12    4.4000863700    6.1812803010    5.1235239620    0.0000000000    0.0002403500    0.0000000000
   26    4.4000863700    3.1104709240    5.1235239620    0.0000000000   -0.0001239300    0.0000000000
   19    3.4726560440    4.5778150280   10.2470492100    0.0000000000   -0.0003844700    0.0000000000
 FRAMES
1      0.0000000000    0.0000000000    0.0000000000      5.3275145260    0.0000000000    0.0000000000
1      0.0000000000    0.0000000000    0.0000000000      0.0000000000    9.2677534550    0.0000000000
1      0.0000000000    0.0000000000    0.0000000000     -1.8548584820    0.0000000000   10.2470492100
1     -1.8548584820    0.0000000000   10.2470492100      3.4726560440    0.0000000000   10.2470492100
1     -1.8548584820    0.0000000000   10.2470492100     -1.8548584820    9.2677534550   10.2470492100
1      0.0000000000    9.2677534550    0.0000000000      5.3275145260    9.2677534550    0.0000000000
1      0.0000000000    9.2677534550    0.0000000000     -1.8548584820    9.2677534550   10.2470492100
1     -1.8548584820    9.2677534550   10.2470492100      3.4726560440    9.2677534550   10.2470492100
1      5.3275145260    0.0000000000    0.0000000000      5.3275145260    9.2677534550    0.0000000000
1      5.3275145260    0.0000000000    0.0000000000      3.4726560440    0.0000000000   10.2470492100
1      3.4726560440    0.0000000000   10.2470492100      3.4726560440    9.2677534550   10.2470492100
1      5.3275145260    9.2677534550    0.0000000000      3.4726560440    9.2677534550   10.2470492100
