 INFO
nunit      1    1    1
unit   cell
celltype   primcell
shape   parapipedal
 END_INFO
 DIM-GROUP
           3           1
 PRIMVEC
    5.3256068900    0.0000000000    0.0000000000
    0.0000000000    9.2452592420    0.0000000000
   -1.8340864410    0.0000000000   10.2591362060
 CONVVEC
    5.3256068900    0.0000000000    0.0000000000
    0.0000000000    9.2452592420    0.0000000000
   -1.8340864410    0.0000000000   10.2591362060
 PRIMCOORD
          44           1
 19      0.0000000000     4.5268988760     0.0000000000     0.0000000000    -0.0007674700     0.0000000000
 19      2.6628040570     0.0691659270     0.0000000000     0.0000000000     0.0007687100     0.0000000000
 12     -0.9170420350     0.0411209390     5.1295668470     0.0000000000     0.0002882100     0.0000000000
 12     -0.9170420350     3.0803941030     5.1295668470     0.0000000000     0.0000836100     0.0000000000
 12     -0.9170420350     6.1507701760     5.1295668470     0.0000000000     0.0005419500     0.0000000000
 12      1.7457620220     4.5576264840     5.1295668470     0.0000000000    -0.0006867000     0.0000000000
 12      1.7457620220     7.7157317730     5.1295668470     0.0000000000     0.0000519600     0.0000000000
 12      1.7457620220     1.5954351000     5.1295668470     0.0000000000    -0.0000642000     0.0000000000
 14      0.0348634670     1.5248446730     2.3253972750     0.0002703000    -0.0000934400     0.0003404600
 14      3.4566604950     1.5248446730     7.9337368820    -0.0002703000    -0.0000934400    -0.0003404600
 14      3.5683967980     7.7122069540     7.8657066130     0.0000942600     0.0000165900     0.0000772300
 14     -0.0768726310     7.7122069540     2.3934270820    -0.0000942600     0.0000165900    -0.0000772300
 14      2.5832870040     6.1623668720     2.3708504330    -0.0001324300     0.0002145500     0.0005463900
 14      0.9082370950     6.1623668720     7.8882829550     0.0001324300     0.0002145500    -0.0005463900
 13      0.7889235890     3.0598973970     7.9130278340    -0.0000773500     0.0000819600    -0.0002740600
 13      2.7026004550     3.0598973970     2.3461058610     0.0000773500     0.0000819600     0.0002740600
  8     -0.0286617020     1.5152766780     3.9597528430     0.0003577200    -0.0001831400     0.0008103900
  8      3.5201857470     1.5152766780     6.2993808520    -0.0003577200    -0.0001831400    -0.0008103900
  8      3.5407949480     7.7028468890     6.2448481310     0.0001780300    -0.0001627200    -0.0005581800
  8     -0.0492708230     7.7028468890     4.0142855640    -0.0001780300    -0.0001627200     0.0005581800
  8      2.6147313290     6.1861680730     3.9988333380    -0.0001571300     0.0001229500     0.0007312100
  8      0.8767927710     6.1861680730     6.2603000490     0.0001571300     0.0001229500    -0.0007312100
  8      0.8167632170     3.0756302010     6.1792046710     0.0000233200     0.0001456500    -0.0005787000
  8      2.6747610410     3.0756302010     4.0799287270    -0.0000233200     0.0001456500     0.0005787000
  8      1.5104244660     1.8958232100     1.7421478310    -0.0001771300    -0.0005044600    -0.0001933700
  8      1.9810995290     1.8958232100     8.5169852490     0.0001771300    -0.0005044600     0.0001933700
  8      5.0201016770     9.2173241930     1.7743043190    -0.0002701100    -0.0000041900    -0.0003734500
  8     -1.5285777310     9.2173241930     8.4848290680     0.0002701100    -0.0000041900     0.0003734500
  8      2.1378157950     7.1354775050     8.4688153220     0.0000025000     0.0005255800     0.0003801700
  8      1.3537081210     7.1354775050     1.7903182290    -0.0000025000     0.0005255800    -0.0003801700
  8      4.0121718110     6.7969557740     1.7821114580     0.0001314100    -0.0005465000    -0.0003644400
  8     -0.5206477390     6.7969557740     8.4770220830    -0.0001314100    -0.0005465000     0.0003644400
  8      2.3739921910     4.6951350020     1.7184312770    -0.0005426300     0.0003163100    -0.0007768500
  8      1.1175317220     4.6951350020     8.5407022640     0.0005426300     0.0003163100     0.0007768500
  8     -0.7660573030     2.5347341870     8.5774100950    -0.0003690900     0.0000556500     0.0002636800
  8      4.2575815880     2.5347341870     1.6817236000     0.0003690900     0.0000556500    -0.0002636800
  8     -0.0281869660     4.6608610620     4.0698272330     0.0000428400    -0.0002661100    -0.0003556300
  8      3.5197112450     4.6608610620     6.1893064620    -0.0000428400    -0.0002661100     0.0003556300
  8      2.6395969730     9.2413109540     4.1030077950    -0.0003209900     0.0001626800     0.0006634700
  8      0.8519272320     9.2413109540     6.1561259000     0.0003209900     0.0001626800    -0.0006634700
  1     -0.0178738640     4.5786870720     3.1075256760    -0.0000711700     0.0001755500     0.0003532000
  1      3.5093982460     4.5786870720     7.1516077110     0.0000711700     0.0001755500    -0.0003532000
  1      2.6182251440     0.1337098150     3.1464080870     0.0000212200    -0.0001649500    -0.0000610800
  1      0.8732989000     0.1337098150     7.1127256080    -0.0000212200    -0.0001649500     0.0000610800
 CONVCOORD
          44           1
 19      0.0000000000     4.5268988760     0.0000000000
 19      2.6628040570     0.0691659270     0.0000000000
 12     -0.9170420350     0.0411209390     5.1295668470
 12     -0.9170420350     3.0803941030     5.1295668470
 12     -0.9170420350     6.1507701760     5.1295668470
 12      1.7457620220     4.5576264840     5.1295668470
 12      1.7457620220     7.7157317730     5.1295668470
 12      1.7457620220     1.5954351000     5.1295668470
 14      0.0348634670     1.5248446730     2.3253972750
 14      3.4566604950     1.5248446730     7.9337368820
 14      3.5683967980     7.7122069540     7.8657066130
 14     -0.0768726310     7.7122069540     2.3934270820
 14      2.5832870040     6.1623668720     2.3708504330
 14      0.9082370950     6.1623668720     7.8882829550
 13      0.7889235890     3.0598973970     7.9130278340
 13      2.7026004550     3.0598973970     2.3461058610
  8     -0.0286617020     1.5152766780     3.9597528430
  8      3.5201857470     1.5152766780     6.2993808520
  8      3.5407949480     7.7028468890     6.2448481310
  8     -0.0492708230     7.7028468890     4.0142855640
  8      2.6147313290     6.1861680730     3.9988333380
  8      0.8767927710     6.1861680730     6.2603000490
  8      0.8167632170     3.0756302010     6.1792046710
  8      2.6747610410     3.0756302010     4.0799287270
  8      1.5104244660     1.8958232100     1.7421478310
  8      1.9810995290     1.8958232100     8.5169852490
  8     -0.3055052130     9.2173241930     1.7743043190
  8     -1.5285777310     9.2173241930     8.4848290680
  8      2.1378157950     7.1354775050     8.4688153220
  8      1.3537081210     7.1354775050     1.7903182290
  8      4.0121718110     6.7969557740     1.7821114580
  8     -0.5206477390     6.7969557740     8.4770220830
  8      2.3739921910     4.6951350020     1.7184312770
  8      1.1175317220     4.6951350020     8.5407022640
  8     -0.7660573030     2.5347341870     8.5774100950
  8      4.2575815880     2.5347341870     1.6817236000
  8     -0.0281869660     4.6608610620     4.0698272330
  8      3.5197112450     4.6608610620     6.1893064620
  8      2.6395969730     9.2413109540     4.1030077950
  8      0.8519272320     9.2413109540     6.1561259000
  1     -0.0178738640     4.5786870720     3.1075256760
  1      3.5093982460     4.5786870720     7.1516077110
  1      2.6182251440     0.1337098150     3.1464080870
  1      0.8732989000     0.1337098150     7.1127256080
 RECIP-PRIMVEC
    0.1877720269   -0.0000000000    0.0335691155

    0.0000000000    0.1081635435   -0.0000000000

    0.0000000000    0.0000000000    0.0974740933

 RECIP-CONVVEC
    0.1877720269   -0.0000000000    0.0335691155

    0.0000000000    0.1081635435   -0.0000000000

    0.0000000000    0.0000000000    0.0974740933

 WIGNER-SEITZ-PRIMCELL
           4
 -0.2662803E+01  0.4622630E+01 -0.4817468E+01  -0.3221851E+00  0.0000000E+00 -0.9466767E+00
 -0.8287170E+00  0.4622630E+01 -0.5441668E+01  -0.3221851E+00  0.0000000E+00 -0.9466767E+00
 -0.8287170E+00 -0.4622630E+01 -0.5441668E+01  -0.3221851E+00  0.0000000E+00 -0.9466767E+00
 -0.2662803E+01 -0.4622630E+01 -0.4817468E+01  -0.3221851E+00  0.0000000E+00 -0.9466767E+00
           4
 -0.2662803E+01  0.4622630E+01 -0.4817468E+01  -0.1000000E+01 -0.0000000E+00 -0.0000000E+00
 -0.2662803E+01 -0.4622630E+01 -0.4817468E+01  -0.1000000E+01 -0.0000000E+00 -0.0000000E+00
 -0.2662803E+01 -0.4622630E+01  0.4817468E+01  -0.1000000E+01 -0.0000000E+00 -0.0000000E+00
 -0.2662803E+01  0.4622630E+01  0.4817468E+01  -0.1000000E+01 -0.0000000E+00 -0.0000000E+00
           6
  0.2662803E+01 -0.4622630E+01  0.4817468E+01  -0.0000000E+00 -0.1000000E+01  0.5343644E-15
  0.8287170E+00 -0.4622630E+01  0.5441668E+01  -0.0000000E+00 -0.1000000E+01  0.5343644E-15
 -0.2662803E+01 -0.4622630E+01  0.4817468E+01  -0.0000000E+00 -0.1000000E+01  0.5343644E-15
 -0.2662803E+01 -0.4622630E+01 -0.4817468E+01  -0.0000000E+00 -0.1000000E+01  0.5343644E-15
 -0.8287170E+00 -0.4622630E+01 -0.5441668E+01  -0.0000000E+00 -0.1000000E+01  0.5343644E-15
  0.2662803E+01 -0.4622630E+01 -0.4817468E+01  -0.0000000E+00 -0.1000000E+01  0.5343644E-15
           4
  0.2662803E+01  0.4622630E+01 -0.4817468E+01   0.1759857E+00  0.0000000E+00 -0.9843927E+00
  0.2662803E+01 -0.4622630E+01 -0.4817468E+01   0.1759857E+00  0.0000000E+00 -0.9843927E+00
 -0.8287170E+00 -0.4622630E+01 -0.5441668E+01   0.1759857E+00  0.0000000E+00 -0.9843927E+00
 -0.8287170E+00  0.4622630E+01 -0.5441668E+01   0.1759857E+00  0.0000000E+00 -0.9843927E+00
           4
 -0.2662803E+01  0.4622630E+01  0.4817468E+01  -0.1759857E+00 -0.0000000E+00  0.9843927E+00
 -0.2662803E+01 -0.4622630E+01  0.4817468E+01  -0.1759857E+00 -0.0000000E+00  0.9843927E+00
  0.8287170E+00 -0.4622630E+01  0.5441668E+01  -0.1759857E+00 -0.0000000E+00  0.9843927E+00
  0.8287170E+00  0.4622630E+01  0.5441668E+01  -0.1759857E+00 -0.0000000E+00  0.9843927E+00
           6
  0.2662803E+01  0.4622630E+01 -0.4817468E+01   0.0000000E+00  0.1000000E+01 -0.0000000E+00
 -0.8287170E+00  0.4622630E+01 -0.5441668E+01   0.0000000E+00  0.1000000E+01 -0.0000000E+00
 -0.2662803E+01  0.4622630E+01 -0.4817468E+01   0.0000000E+00  0.1000000E+01 -0.0000000E+00
 -0.2662803E+01  0.4622630E+01  0.4817468E+01   0.0000000E+00  0.1000000E+01 -0.0000000E+00
  0.8287170E+00  0.4622630E+01  0.5441668E+01   0.0000000E+00  0.1000000E+01 -0.0000000E+00
  0.2662803E+01  0.4622630E+01  0.4817468E+01   0.0000000E+00  0.1000000E+01 -0.0000000E+00
           4
  0.2662803E+01  0.4622630E+01  0.4817468E+01   0.1000000E+01  0.0000000E+00  0.0000000E+00
  0.2662803E+01 -0.4622630E+01  0.4817468E+01   0.1000000E+01  0.0000000E+00  0.0000000E+00
  0.2662803E+01 -0.4622630E+01 -0.4817468E+01   0.1000000E+01  0.0000000E+00  0.0000000E+00
  0.2662803E+01  0.4622630E+01 -0.4817468E+01   0.1000000E+01  0.0000000E+00  0.0000000E+00
           4
  0.8287170E+00 -0.4622630E+01  0.5441668E+01   0.3221851E+00  0.9111500E-16  0.9466767E+00
  0.2662803E+01 -0.4622630E+01  0.4817468E+01   0.3221851E+00  0.9111500E-16  0.9466767E+00
  0.2662803E+01  0.4622630E+01  0.4817468E+01   0.3221851E+00  0.9111500E-16  0.9466767E+00
  0.8287170E+00  0.4622630E+01  0.5441668E+01   0.3221851E+00  0.9111500E-16  0.9466767E+00
 WIGNER-SEITZ-PRIMCELL_END
 WIGNER-SEITZ-CONVCELL
           4
 -0.2662803E+01  0.4622630E+01 -0.4817468E+01  -0.3221851E+00  0.0000000E+00 -0.9466767E+00
 -0.8287170E+00  0.4622630E+01 -0.5441668E+01  -0.3221851E+00  0.0000000E+00 -0.9466767E+00
 -0.8287170E+00 -0.4622630E+01 -0.5441668E+01  -0.3221851E+00  0.0000000E+00 -0.9466767E+00
 -0.2662803E+01 -0.4622630E+01 -0.4817468E+01  -0.3221851E+00  0.0000000E+00 -0.9466767E+00
           4
 -0.2662803E+01  0.4622630E+01 -0.4817468E+01  -0.1000000E+01 -0.0000000E+00 -0.0000000E+00
 -0.2662803E+01 -0.4622630E+01 -0.4817468E+01  -0.1000000E+01 -0.0000000E+00 -0.0000000E+00
 -0.2662803E+01 -0.4622630E+01  0.4817468E+01  -0.1000000E+01 -0.0000000E+00 -0.0000000E+00
 -0.2662803E+01  0.4622630E+01  0.4817468E+01  -0.1000000E+01 -0.0000000E+00 -0.0000000E+00
           6
  0.2662803E+01 -0.4622630E+01  0.4817468E+01  -0.0000000E+00 -0.1000000E+01  0.5343644E-15
  0.8287170E+00 -0.4622630E+01  0.5441668E+01  -0.0000000E+00 -0.1000000E+01  0.5343644E-15
 -0.2662803E+01 -0.4622630E+01  0.4817468E+01  -0.0000000E+00 -0.1000000E+01  0.5343644E-15
 -0.2662803E+01 -0.4622630E+01 -0.4817468E+01  -0.0000000E+00 -0.1000000E+01  0.5343644E-15
 -0.8287170E+00 -0.4622630E+01 -0.5441668E+01  -0.0000000E+00 -0.1000000E+01  0.5343644E-15
  0.2662803E+01 -0.4622630E+01 -0.4817468E+01  -0.0000000E+00 -0.1000000E+01  0.5343644E-15
           4
  0.2662803E+01  0.4622630E+01 -0.4817468E+01   0.1759857E+00  0.0000000E+00 -0.9843927E+00
  0.2662803E+01 -0.4622630E+01 -0.4817468E+01   0.1759857E+00  0.0000000E+00 -0.9843927E+00
 -0.8287170E+00 -0.4622630E+01 -0.5441668E+01   0.1759857E+00  0.0000000E+00 -0.9843927E+00
 -0.8287170E+00  0.4622630E+01 -0.5441668E+01   0.1759857E+00  0.0000000E+00 -0.9843927E+00
           4
 -0.2662803E+01  0.4622630E+01  0.4817468E+01  -0.1759857E+00 -0.0000000E+00  0.9843927E+00
 -0.2662803E+01 -0.4622630E+01  0.4817468E+01  -0.1759857E+00 -0.0000000E+00  0.9843927E+00
  0.8287170E+00 -0.4622630E+01  0.5441668E+01  -0.1759857E+00 -0.0000000E+00  0.9843927E+00
  0.8287170E+00  0.4622630E+01  0.5441668E+01  -0.1759857E+00 -0.0000000E+00  0.9843927E+00
           6
  0.2662803E+01  0.4622630E+01 -0.4817468E+01   0.0000000E+00  0.1000000E+01 -0.0000000E+00
 -0.8287170E+00  0.4622630E+01 -0.5441668E+01   0.0000000E+00  0.1000000E+01 -0.0000000E+00
 -0.2662803E+01  0.4622630E+01 -0.4817468E+01   0.0000000E+00  0.1000000E+01 -0.0000000E+00
 -0.2662803E+01  0.4622630E+01  0.4817468E+01   0.0000000E+00  0.1000000E+01 -0.0000000E+00
  0.8287170E+00  0.4622630E+01  0.5441668E+01   0.0000000E+00  0.1000000E+01 -0.0000000E+00
  0.2662803E+01  0.4622630E+01  0.4817468E+01   0.0000000E+00  0.1000000E+01 -0.0000000E+00
           4
  0.2662803E+01  0.4622630E+01  0.4817468E+01   0.1000000E+01  0.0000000E+00  0.0000000E+00
  0.2662803E+01 -0.4622630E+01  0.4817468E+01   0.1000000E+01  0.0000000E+00  0.0000000E+00
  0.2662803E+01 -0.4622630E+01 -0.4817468E+01   0.1000000E+01  0.0000000E+00  0.0000000E+00
  0.2662803E+01  0.4622630E+01 -0.4817468E+01   0.1000000E+01  0.0000000E+00  0.0000000E+00
           4
  0.8287170E+00 -0.4622630E+01  0.5441668E+01   0.3221851E+00  0.9111500E-16  0.9466767E+00
  0.2662803E+01 -0.4622630E+01  0.4817468E+01   0.3221851E+00  0.9111500E-16  0.9466767E+00
  0.2662803E+01  0.4622630E+01  0.4817468E+01   0.3221851E+00  0.9111500E-16  0.9466767E+00
  0.8287170E+00  0.4622630E+01  0.5441668E+01   0.3221851E+00  0.9111500E-16  0.9466767E+00
 WIGNER-SEITZ-CONVCELL_END
 BRILLOUIN-ZONE-PRIMCELL
           4
  0.9959835E-01  0.5408177E-01 -0.1516793E-01   0.9466767E+00 -0.5653549E-16 -0.3221851E+00
  0.9959835E-01 -0.5408177E-01 -0.1516793E-01   0.9466767E+00 -0.5653549E-16 -0.3221851E+00
  0.8817368E-01 -0.5408177E-01 -0.4873705E-01   0.9466767E+00 -0.5653549E-16 -0.3221851E+00
  0.8817368E-01  0.5408177E-01 -0.4873705E-01   0.9466767E+00 -0.5653549E-16 -0.3221851E+00
           4
 -0.8817368E-01 -0.5408177E-01 -0.4873705E-01  -0.9866154E-16 -0.9094533E-16 -0.1000000E+01
 -0.8817368E-01  0.5408177E-01 -0.4873705E-01  -0.9866154E-16 -0.9094533E-16 -0.1000000E+01
  0.8817368E-01  0.5408177E-01 -0.4873705E-01  -0.9866154E-16 -0.9094533E-16 -0.1000000E+01
  0.8817368E-01 -0.5408177E-01 -0.4873705E-01  -0.9866154E-16 -0.9094533E-16 -0.1000000E+01
           6
  0.8817368E-01 -0.5408177E-01  0.4873705E-01  -0.0000000E+00 -0.1000000E+01  0.0000000E+00
 -0.8817368E-01 -0.5408177E-01  0.4873705E-01  -0.0000000E+00 -0.1000000E+01  0.0000000E+00
 -0.9959835E-01 -0.5408177E-01  0.1516793E-01  -0.0000000E+00 -0.1000000E+01  0.0000000E+00
 -0.8817368E-01 -0.5408177E-01 -0.4873705E-01  -0.0000000E+00 -0.1000000E+01  0.0000000E+00
  0.8817368E-01 -0.5408177E-01 -0.4873705E-01  -0.0000000E+00 -0.1000000E+01  0.0000000E+00
  0.9959835E-01 -0.5408177E-01 -0.1516793E-01  -0.0000000E+00 -0.1000000E+01  0.0000000E+00
           4
  0.8817368E-01 -0.5408177E-01  0.4873705E-01   0.9843927E+00 -0.6948252E-16  0.1759857E+00
  0.9959835E-01 -0.5408177E-01 -0.1516793E-01   0.9843927E+00 -0.6948252E-16  0.1759857E+00
  0.9959835E-01  0.5408177E-01 -0.1516793E-01   0.9843927E+00 -0.6948252E-16  0.1759857E+00
  0.8817368E-01  0.5408177E-01  0.4873705E-01   0.9843927E+00 -0.6948252E-16  0.1759857E+00
           4
 -0.8817368E-01  0.5408177E-01 -0.4873705E-01  -0.9843927E+00  0.7720280E-16 -0.1759857E+00
 -0.8817368E-01 -0.5408177E-01 -0.4873705E-01  -0.9843927E+00  0.7720280E-16 -0.1759857E+00
 -0.9959835E-01 -0.5408177E-01  0.1516793E-01  -0.9843927E+00  0.7720280E-16 -0.1759857E+00
 -0.9959835E-01  0.5408177E-01  0.1516793E-01  -0.9843927E+00  0.7720280E-16 -0.1759857E+00
           6
  0.9959835E-01  0.5408177E-01 -0.1516793E-01   0.0000000E+00  0.1000000E+01 -0.0000000E+00
  0.8817368E-01  0.5408177E-01 -0.4873705E-01   0.0000000E+00  0.1000000E+01 -0.0000000E+00
 -0.8817368E-01  0.5408177E-01 -0.4873705E-01   0.0000000E+00  0.1000000E+01 -0.0000000E+00
 -0.9959835E-01  0.5408177E-01  0.1516793E-01   0.0000000E+00  0.1000000E+01 -0.0000000E+00
 -0.8817368E-01  0.5408177E-01  0.4873705E-01   0.0000000E+00  0.1000000E+01 -0.0000000E+00
  0.8817368E-01  0.5408177E-01  0.4873705E-01   0.0000000E+00  0.1000000E+01 -0.0000000E+00
           4
  0.8817368E-01 -0.5408177E-01  0.4873705E-01  -0.0000000E+00 -0.0000000E+00  0.1000000E+01
  0.8817368E-01  0.5408177E-01  0.4873705E-01  -0.0000000E+00 -0.0000000E+00  0.1000000E+01
 -0.8817368E-01  0.5408177E-01  0.4873705E-01  -0.0000000E+00 -0.0000000E+00  0.1000000E+01
 -0.8817368E-01 -0.5408177E-01  0.4873705E-01  -0.0000000E+00 -0.0000000E+00  0.1000000E+01
           4
 -0.8817368E-01  0.5408177E-01  0.4873705E-01  -0.9466767E+00 -0.0000000E+00  0.3221851E+00
 -0.9959835E-01  0.5408177E-01  0.1516793E-01  -0.9466767E+00 -0.0000000E+00  0.3221851E+00
 -0.9959835E-01 -0.5408177E-01  0.1516793E-01  -0.9466767E+00 -0.0000000E+00  0.3221851E+00
 -0.8817368E-01 -0.5408177E-01  0.4873705E-01  -0.9466767E+00 -0.0000000E+00  0.3221851E+00
 BRILLOUIN-ZONE-PRIMCELL_END
 BRILLOUIN-ZONE-CONVCELL
           4
  0.9959835E-01  0.5408177E-01 -0.1516793E-01   0.9466767E+00 -0.5653549E-16 -0.3221851E+00
  0.9959835E-01 -0.5408177E-01 -0.1516793E-01   0.9466767E+00 -0.5653549E-16 -0.3221851E+00
  0.8817368E-01 -0.5408177E-01 -0.4873705E-01   0.9466767E+00 -0.5653549E-16 -0.3221851E+00
  0.8817368E-01  0.5408177E-01 -0.4873705E-01   0.9466767E+00 -0.5653549E-16 -0.3221851E+00
           4
 -0.8817368E-01 -0.5408177E-01 -0.4873705E-01  -0.9866154E-16 -0.9094533E-16 -0.1000000E+01
 -0.8817368E-01  0.5408177E-01 -0.4873705E-01  -0.9866154E-16 -0.9094533E-16 -0.1000000E+01
  0.8817368E-01  0.5408177E-01 -0.4873705E-01  -0.9866154E-16 -0.9094533E-16 -0.1000000E+01
  0.8817368E-01 -0.5408177E-01 -0.4873705E-01  -0.9866154E-16 -0.9094533E-16 -0.1000000E+01
           6
  0.8817368E-01 -0.5408177E-01  0.4873705E-01  -0.0000000E+00 -0.1000000E+01  0.0000000E+00
 -0.8817368E-01 -0.5408177E-01  0.4873705E-01  -0.0000000E+00 -0.1000000E+01  0.0000000E+00
 -0.9959835E-01 -0.5408177E-01  0.1516793E-01  -0.0000000E+00 -0.1000000E+01  0.0000000E+00
 -0.8817368E-01 -0.5408177E-01 -0.4873705E-01  -0.0000000E+00 -0.1000000E+01  0.0000000E+00
  0.8817368E-01 -0.5408177E-01 -0.4873705E-01  -0.0000000E+00 -0.1000000E+01  0.0000000E+00
  0.9959835E-01 -0.5408177E-01 -0.1516793E-01  -0.0000000E+00 -0.1000000E+01  0.0000000E+00
           4
  0.8817368E-01 -0.5408177E-01  0.4873705E-01   0.9843927E+00 -0.6948252E-16  0.1759857E+00
  0.9959835E-01 -0.5408177E-01 -0.1516793E-01   0.9843927E+00 -0.6948252E-16  0.1759857E+00
  0.9959835E-01  0.5408177E-01 -0.1516793E-01   0.9843927E+00 -0.6948252E-16  0.1759857E+00
  0.8817368E-01  0.5408177E-01  0.4873705E-01   0.9843927E+00 -0.6948252E-16  0.1759857E+00
           4
 -0.8817368E-01  0.5408177E-01 -0.4873705E-01  -0.9843927E+00  0.7720280E-16 -0.1759857E+00
 -0.8817368E-01 -0.5408177E-01 -0.4873705E-01  -0.9843927E+00  0.7720280E-16 -0.1759857E+00
 -0.9959835E-01 -0.5408177E-01  0.1516793E-01  -0.9843927E+00  0.7720280E-16 -0.1759857E+00
 -0.9959835E-01  0.5408177E-01  0.1516793E-01  -0.9843927E+00  0.7720280E-16 -0.1759857E+00
           6
  0.9959835E-01  0.5408177E-01 -0.1516793E-01   0.0000000E+00  0.1000000E+01 -0.0000000E+00
  0.8817368E-01  0.5408177E-01 -0.4873705E-01   0.0000000E+00  0.1000000E+01 -0.0000000E+00
 -0.8817368E-01  0.5408177E-01 -0.4873705E-01   0.0000000E+00  0.1000000E+01 -0.0000000E+00
 -0.9959835E-01  0.5408177E-01  0.1516793E-01   0.0000000E+00  0.1000000E+01 -0.0000000E+00
 -0.8817368E-01  0.5408177E-01  0.4873705E-01   0.0000000E+00  0.1000000E+01 -0.0000000E+00
  0.8817368E-01  0.5408177E-01  0.4873705E-01   0.0000000E+00  0.1000000E+01 -0.0000000E+00
           4
  0.8817368E-01 -0.5408177E-01  0.4873705E-01  -0.0000000E+00 -0.0000000E+00  0.1000000E+01
  0.8817368E-01  0.5408177E-01  0.4873705E-01  -0.0000000E+00 -0.0000000E+00  0.1000000E+01
 -0.8817368E-01  0.5408177E-01  0.4873705E-01  -0.0000000E+00 -0.0000000E+00  0.1000000E+01
 -0.8817368E-01 -0.5408177E-01  0.4873705E-01  -0.0000000E+00 -0.0000000E+00  0.1000000E+01
           4
 -0.8817368E-01  0.5408177E-01  0.4873705E-01  -0.9466767E+00 -0.0000000E+00  0.3221851E+00
 -0.9959835E-01  0.5408177E-01  0.1516793E-01  -0.9466767E+00 -0.0000000E+00  0.3221851E+00
 -0.9959835E-01 -0.5408177E-01  0.1516793E-01  -0.9466767E+00 -0.0000000E+00  0.3221851E+00
 -0.8817368E-01 -0.5408177E-01  0.4873705E-01  -0.9466767E+00 -0.0000000E+00  0.3221851E+00
 BRILLOUIN-ZONE-CONVCELL_END
 ATOMS
   19    0.0000000000    4.5268988760    0.0000000000    0.0000000000   -0.0007674700    0.0000000000
   19    2.6628040570    0.0691659270    0.0000000000    0.0000000000    0.0007687100    0.0000000000
   12   -0.9170420350    0.0411209390    5.1295668470    0.0000000000    0.0002882100    0.0000000000
   12   -0.9170420350    3.0803941030    5.1295668470    0.0000000000    0.0000836100    0.0000000000
   12   -0.9170420350    6.1507701760    5.1295668470    0.0000000000    0.0005419500    0.0000000000
   12    1.7457620220    4.5576264840    5.1295668470    0.0000000000   -0.0006867000    0.0000000000
   12    1.7457620220    7.7157317730    5.1295668470    0.0000000000    0.0000519600    0.0000000000
   12    1.7457620220    1.5954351000    5.1295668470    0.0000000000   -0.0000642000    0.0000000000
   14    0.0348634670    1.5248446730    2.3253972750    0.0002703000   -0.0000934400    0.0003404600
   14    3.4566604950    1.5248446730    7.9337368820   -0.0002703000   -0.0000934400   -0.0003404600
   14    3.5683967980    7.7122069540    7.8657066130    0.0000942600    0.0000165900    0.0000772300
   14   -0.0768726310    7.7122069540    2.3934270820   -0.0000942600    0.0000165900   -0.0000772300
   14    2.5832870040    6.1623668720    2.3708504330   -0.0001324300    0.0002145500    0.0005463900
   14    0.9082370950    6.1623668720    7.8882829550    0.0001324300    0.0002145500   -0.0005463900
   13    0.7889235890    3.0598973970    7.9130278340   -0.0000773500    0.0000819600   -0.0002740600
   13    2.7026004550    3.0598973970    2.3461058610    0.0000773500    0.0000819600    0.0002740600
    8   -0.0286617020    1.5152766780    3.9597528430    0.0003577200   -0.0001831400    0.0008103900
    8    3.5201857470    1.5152766780    6.2993808520   -0.0003577200   -0.0001831400   -0.0008103900
    8    3.5407949480    7.7028468890    6.2448481310    0.0001780300   -0.0001627200   -0.0005581800
    8   -0.0492708230    7.7028468890    4.0142855640   -0.0001780300   -0.0001627200    0.0005581800
    8    2.6147313290    6.1861680730    3.9988333380   -0.0001571300    0.0001229500    0.0007312100
    8    0.8767927710    6.1861680730    6.2603000490    0.0001571300    0.0001229500   -0.0007312100
    8    0.8167632170    3.0756302010    6.1792046710    0.0000233200    0.0001456500   -0.0005787000
    8    2.6747610410    3.0756302010    4.0799287270   -0.0000233200    0.0001456500    0.0005787000
    8    1.5104244660    1.8958232100    1.7421478310   -0.0001771300   -0.0005044600   -0.0001933700
    8    1.9810995290    1.8958232100    8.5169852490    0.0001771300   -0.0005044600    0.0001933700
    8   -0.3055052130    9.2173241930    1.7743043190   -0.0002701100   -0.0000041900   -0.0003734500
    8    2.1378157950    7.1354775050    8.4688153220    0.0000025000    0.0005255800    0.0003801700
    8    1.3537081210    7.1354775050    1.7903182290   -0.0000025000    0.0005255800   -0.0003801700
    8    4.0121718110    6.7969557740    1.7821114580    0.0001314100   -0.0005465000   -0.0003644400
    8   -0.5206477390    6.7969557740    8.4770220830   -0.0001314100   -0.0005465000    0.0003644400
    8    2.3739921910    4.6951350020    1.7184312770   -0.0005426300    0.0003163100   -0.0007768500
    8    1.1175317220    4.6951350020    8.5407022640    0.0005426300    0.0003163100    0.0007768500
    8   -0.7660573030    2.5347341870    8.5774100950   -0.0003690900    0.0000556500    0.0002636800
    8    4.2575815880    2.5347341870    1.6817236000    0.0003690900    0.0000556500   -0.0002636800
    8   -0.0281869660    4.6608610620    4.0698272330    0.0000428400   -0.0002661100   -0.0003556300
    8    3.5197112450    4.6608610620    6.1893064620   -0.0000428400   -0.0002661100    0.0003556300
    8    2.6395969730    9.2413109540    4.1030077950   -0.0003209900    0.0001626800    0.0006634700
    8    0.8519272320    9.2413109540    6.1561259000    0.0003209900    0.0001626800   -0.0006634700
    1   -0.0178738640    4.5786870720    3.1075256760   -0.0000711700    0.0001755500    0.0003532000
    1    3.5093982460    4.5786870720    7.1516077110    0.0000711700    0.0001755500   -0.0003532000
    1    2.6182251440    0.1337098150    3.1464080870    0.0000212200   -0.0001649500   -0.0000610800
    1    0.8732989000    0.1337098150    7.1127256080   -0.0000212200   -0.0001649500    0.0000610800
   19   -1.8340864410    4.5268988760   10.2591362060    0.0000000000   -0.0007674700    0.0000000000
   19    0.8287176160    0.0691659270   10.2591362060    0.0000000000    0.0007687100    0.0000000000
   19    5.3256068900    4.5268988760    0.0000000000    0.0000000000   -0.0007674700    0.0000000000
   12    4.4085648550    0.0411209390    5.1295668470    0.0000000000    0.0002882100    0.0000000000
   12    4.4085648550    3.0803941030    5.1295668470    0.0000000000    0.0000836100    0.0000000000
   12    4.4085648550    6.1507701760    5.1295668470    0.0000000000    0.0005419500    0.0000000000
    8    3.7970291590    9.2173241930    8.4848290680    0.0002701100   -0.0000041900    0.0003734500
   19    3.4915204490    4.5268988760   10.2591362060    0.0000000000   -0.0007674700    0.0000000000
 FRAMES
1      0.0000000000    0.0000000000    0.0000000000      5.3256068900    0.0000000000    0.0000000000
1      0.0000000000    0.0000000000    0.0000000000      0.0000000000    9.2452592420    0.0000000000
1      0.0000000000    0.0000000000    0.0000000000     -1.8340864410    0.0000000000   10.2591362060
1     -1.8340864410    0.0000000000   10.2591362060      3.4915204490    0.0000000000   10.2591362060
1     -1.8340864410    0.0000000000   10.2591362060     -1.8340864410    9.2452592420   10.2591362060
1      0.0000000000    9.2452592420    0.0000000000      5.3256068900    9.2452592420    0.0000000000
1      0.0000000000    9.2452592420    0.0000000000     -1.8340864410    9.2452592420   10.2591362060
1     -1.8340864410    9.2452592420   10.2591362060      3.4915204490    9.2452592420   10.2591362060
1      5.3256068900    0.0000000000    0.0000000000      5.3256068900    9.2452592420    0.0000000000
1      5.3256068900    0.0000000000    0.0000000000      3.4915204490    0.0000000000   10.2591362060
1      3.4915204490    0.0000000000   10.2591362060      3.4915204490    9.2452592420   10.2591362060
1      5.3256068900    9.2452592420    0.0000000000      3.4915204490    9.2452592420   10.2591362060
