 INFO
nunit      1    1    1
unit   cell
celltype   primcell
shape   parapipedal
 END_INFO
 DIM-GROUP
           3           1
 PRIMVEC
    5.3223162170    0.0000000000    0.0000000000
    0.0000000000    9.2392448880    0.0000000000
   -1.8589810960    0.0000000000   10.2510605460
 CONVVEC
    5.3223162170    0.0000000000    0.0000000000
    0.0000000000    9.2392448880    0.0000000000
   -1.8589810960    0.0000000000   10.2510605460
 PRIMCOORD
          44           1
 19      0.0000000000     4.5056707990     0.0000000000     0.0000000000    -0.0001037800     0.0000000000
 19      2.6611570940     0.0837713660     0.0000000000     0.0000000000     0.0001762500     0.0000000000
 12     -0.9294910900     0.0404330460     5.1255291630     0.0000000000     0.0001164700     0.0000000000
 12     -0.9294910900     3.0792540790     5.1255291630     0.0000000000     0.0000160600     0.0000000000
 12     -0.9294910900     6.1481374650     5.1255291630     0.0000000000    -0.0000842700     0.0000000000
 12      1.7316660040     4.5539321270     5.1255291630     0.0000000000     0.0001058800     0.0000000000
 12      1.7316660040     7.7102942090     5.1255291630     0.0000000000     0.0000026700     0.0000000000
 12      1.7316660040     1.5939567950     5.1255291630     0.0000000000    -0.0000464500     0.0000000000
 14      0.0199868240     1.5230423390     2.3238424850    -0.0000195800     0.0000233900    -0.0000272400
 14      3.4433450540     1.5230423390     7.9272161480     0.0000195800     0.0000233900     0.0000272400
 14      3.5499996830     7.7066745430     7.8620893880     0.0000563400    -0.0000279600     0.0000800800
 14     -0.0866674870     7.7066745430     2.3889687840    -0.0000563400    -0.0000279600    -0.0000800800
 14      2.5712507430     6.1595650760     2.3668938880    -0.0000658500     0.0000024700    -0.0000065400
 14      0.8920814470     6.1595650760     7.8841642840     0.0000658500     0.0000024700     0.0000065400
 13      0.7781155720     3.0593342600     7.9073510610     0.0000175100     0.0000325200     0.0001007300
 13      2.6852164090     3.0593342600     2.3437074190    -0.0000175100     0.0000325200    -0.0001007300
  8     -0.0408653170     1.5132438260     3.9580416270    -0.0000237000     0.0000285800    -0.0000739100
  8      3.5041969800     1.5132438260     6.2930173140     0.0000237000     0.0000285800     0.0000739100
  8      3.5256035900     7.6972230730     6.2409626820    -0.0000412000    -0.0001176200     0.0000525500
  8     -0.0622715630     7.6972230730     4.0100953370     0.0000412000    -0.0001176200    -0.0000525500
  8      2.6004593960     6.1827991510     3.9950982740     0.0000310600     0.0000234500    -0.0000050600
  8      0.8628724580     6.1827991510     6.2559600520    -0.0000310600     0.0000234500     0.0000050600
  8      0.8035847460     3.0748270560     6.1739017010    -0.0000147300    -0.0000871500     0.0000733500
  8      2.6597472620     3.0748270560     4.0771566250     0.0000147300    -0.0000871500    -0.0000733500
  8      1.4954872610     1.8916556950     1.7389489820    -0.0000035000     0.0000587700     0.0000707600
  8      1.9678449630     1.8916556950     8.5121090360     0.0000035000     0.0000587700    -0.0000707600
  8      4.9944417870     9.2110372070     1.7716259400    -0.0000118400     0.0000146800     0.0000114200
  8     -1.5311097710     9.2110372070     8.4794320790     0.0000118400     0.0000146800    -0.0000114200
  8      2.1120414660     7.1461276700     8.4637858040     0.0000968600    -0.0001100700     0.0000379800
  8      1.3512907300     7.1461276700     1.7872723680    -0.0000968600    -0.0001100700    -0.0000379800
  8      4.0078154400     6.7785037270     1.7783013470    -0.0000969000     0.0000089600     0.0000283800
  8     -0.5444835110     6.7785037270     8.4727569790     0.0000969000     0.0000089600    -0.0000283800
  8      2.3476805190     4.6936477460     1.7144148540     0.0000104500    -0.0000250200     0.0000482200
  8      1.1156513350     4.6936477460     8.5366434720    -0.0000104500    -0.0000250200    -0.0000482200
  8     -0.7780697930     2.5355175530     8.5711914060     0.0000678000     0.0000014300    -0.0000052500
  8      4.2414017550     2.5355175530     1.6798667660    -0.0000678000     0.0000014300     0.0000052500
  8     -0.0413735430     4.6575000430     4.0656376500     0.0000282200     0.0000321600     0.0000425300
  8      3.5047057620     4.6575000430     6.1854203680    -0.0000282200     0.0000321600    -0.0000425300
  8      2.6243410760     9.2352923670     4.1005396570    -0.0000762600     0.0000413800    -0.0000100200
  8      0.8389910420     9.2352923670     6.1505180640     0.0000762600     0.0000413800     0.0000100200
  1     -0.0295268360     4.5837346680     3.1029158000    -0.0000567500    -0.0000402000     0.0000077500
  1      3.4928590230     4.5837346680     7.1481428330     0.0000567500    -0.0000402000    -0.0000077500
  1      2.6060457620     0.1242009400     3.1426118780    -0.0000493400     0.0000488100     0.0000198200
  1      0.8572862470     0.1242009400     7.1084464480     0.0000493400     0.0000488100    -0.0000198200
 CONVCOORD
          44           1
 19      0.0000000000     4.5056707990     0.0000000000
 19      2.6611570940     0.0837713660     0.0000000000
 12     -0.9294910900     0.0404330460     5.1255291630
 12     -0.9294910900     3.0792540790     5.1255291630
 12     -0.9294910900     6.1481374650     5.1255291630
 12      1.7316660040     4.5539321270     5.1255291630
 12      1.7316660040     7.7102942090     5.1255291630
 12      1.7316660040     1.5939567950     5.1255291630
 14      0.0199868240     1.5230423390     2.3238424850
 14      3.4433450540     1.5230423390     7.9272161480
 14      3.5499996830     7.7066745430     7.8620893880
 14     -0.0866674870     7.7066745430     2.3889687840
 14      2.5712507430     6.1595650760     2.3668938880
 14      0.8920814470     6.1595650760     7.8841642840
 13      0.7781155720     3.0593342600     7.9073510610
 13      2.6852164090     3.0593342600     2.3437074190
  8     -0.0408653170     1.5132438260     3.9580416270
  8      3.5041969800     1.5132438260     6.2930173140
  8      3.5256035900     7.6972230730     6.2409626820
  8     -0.0622715630     7.6972230730     4.0100953370
  8      2.6004593960     6.1827991510     3.9950982740
  8      0.8628724580     6.1827991510     6.2559600520
  8      0.8035847460     3.0748270560     6.1739017010
  8      2.6597472620     3.0748270560     4.0771566250
  8      1.4954872610     1.8916556950     1.7389489820
  8      1.9678449630     1.8916556950     8.5121090360
  8      4.9944417870     9.2110372070     1.7716259400
  8     -1.5311097710     9.2110372070     8.4794320790
  8      2.1120414660     7.1461276700     8.4637858040
  8      1.3512907300     7.1461276700     1.7872723680
  8      4.0078154400     6.7785037270     1.7783013470
  8     -0.5444835110     6.7785037270     8.4727569790
  8      2.3476805190     4.6936477460     1.7144148540
  8      1.1156513350     4.6936477460     8.5366434720
  8     -0.7780697930     2.5355175530     8.5711914060
  8      4.2414017550     2.5355175530     1.6798667660
  8     -0.0413735430     4.6575000430     4.0656376500
  8      3.5047057620     4.6575000430     6.1854203680
  8      2.6243410760     9.2352923670     4.1005396570
  8      0.8389910420     9.2352923670     6.1505180640
  1     -0.0295268360     4.5837346680     3.1029158000
  1      3.4928590230     4.5837346680     7.1481428330
  1      2.6060457620     0.1242009400     3.1426118780
  1      0.8572862470     0.1242009400     7.1084464480
 RECIP-PRIMVEC
    0.1878881222   -0.0000000000    0.0340726177

    0.0000000000    0.1082339533   -0.0000000000

    0.0000000000    0.0000000000    0.0975508822

 RECIP-CONVVEC
    0.1878881222   -0.0000000000    0.0340726177

    0.0000000000    0.1082339533   -0.0000000000

    0.0000000000    0.0000000000    0.0975508822

 WIGNER-SEITZ-PRIMCELL
           4
 -0.2661158E+01  0.4619622E+01 -0.4811501E+01  -0.3200775E+00 -0.6851727E-16 -0.9473914E+00
 -0.8021770E+00  0.4619622E+01 -0.5439560E+01  -0.3200775E+00 -0.6851727E-16 -0.9473914E+00
 -0.8021770E+00 -0.4619622E+01 -0.5439560E+01  -0.3200775E+00 -0.6851727E-16 -0.9473914E+00
 -0.2661158E+01 -0.4619622E+01 -0.4811501E+01  -0.3200775E+00 -0.6851727E-16 -0.9473914E+00
           4
 -0.2661158E+01  0.4619622E+01 -0.4811501E+01  -0.1000000E+01  0.4806553E-16  0.4436326E-32
 -0.2661158E+01 -0.4619622E+01 -0.4811501E+01  -0.1000000E+01  0.4806553E-16  0.4436326E-32
 -0.2661158E+01 -0.4619622E+01  0.4811501E+01  -0.1000000E+01  0.4806553E-16  0.4436326E-32
 -0.2661158E+01  0.4619622E+01  0.4811501E+01  -0.1000000E+01  0.4806553E-16  0.4436326E-32
           6
  0.2661158E+01 -0.4619622E+01  0.4811501E+01  -0.0000000E+00 -0.1000000E+01  0.0000000E+00
  0.8021770E+00 -0.4619622E+01  0.5439560E+01  -0.0000000E+00 -0.1000000E+01  0.0000000E+00
 -0.2661158E+01 -0.4619622E+01  0.4811501E+01  -0.0000000E+00 -0.1000000E+01  0.0000000E+00
 -0.2661158E+01 -0.4619622E+01 -0.4811501E+01  -0.0000000E+00 -0.1000000E+01  0.0000000E+00
 -0.8021770E+00 -0.4619622E+01 -0.5439560E+01  -0.0000000E+00 -0.1000000E+01  0.0000000E+00
  0.2661158E+01 -0.4619622E+01 -0.4811501E+01  -0.0000000E+00 -0.1000000E+01  0.0000000E+00
           4
  0.2661158E+01  0.4619622E+01 -0.4811501E+01   0.1784350E+00 -0.2184907E-15 -0.9839517E+00
  0.2661158E+01 -0.4619622E+01 -0.4811501E+01   0.1784350E+00 -0.2184907E-15 -0.9839517E+00
 -0.8021770E+00 -0.4619622E+01 -0.5439560E+01   0.1784350E+00 -0.2184907E-15 -0.9839517E+00
 -0.8021770E+00  0.4619622E+01 -0.5439560E+01   0.1784350E+00 -0.2184907E-15 -0.9839517E+00
           4
 -0.2661158E+01  0.4619622E+01  0.4811501E+01  -0.1784350E+00 -0.1092454E-15  0.9839517E+00
 -0.2661158E+01 -0.4619622E+01  0.4811501E+01  -0.1784350E+00 -0.1092454E-15  0.9839517E+00
  0.8021770E+00 -0.4619622E+01  0.5439560E+01  -0.1784350E+00 -0.1092454E-15  0.9839517E+00
  0.8021770E+00  0.4619622E+01  0.5439560E+01  -0.1784350E+00 -0.1092454E-15  0.9839517E+00
           6
  0.2661158E+01  0.4619622E+01 -0.4811501E+01   0.0000000E+00  0.1000000E+01  0.1062818E-14
 -0.8021770E+00  0.4619622E+01 -0.5439560E+01   0.0000000E+00  0.1000000E+01  0.1062818E-14
 -0.2661158E+01  0.4619622E+01 -0.4811501E+01   0.0000000E+00  0.1000000E+01  0.1062818E-14
 -0.2661158E+01  0.4619622E+01  0.4811501E+01   0.0000000E+00  0.1000000E+01  0.1062818E-14
  0.8021770E+00  0.4619622E+01  0.5439560E+01   0.0000000E+00  0.1000000E+01  0.1062818E-14
  0.2661158E+01  0.4619622E+01  0.4811501E+01   0.0000000E+00  0.1000000E+01  0.1062818E-14
           4
  0.2661158E+01  0.4619622E+01  0.4811501E+01   0.1000000E+01 -0.4806553E-16 -0.8872651E-32
  0.2661158E+01 -0.4619622E+01  0.4811501E+01   0.1000000E+01 -0.4806553E-16 -0.8872651E-32
  0.2661158E+01 -0.4619622E+01 -0.4811501E+01   0.1000000E+01 -0.4806553E-16 -0.8872651E-32
  0.2661158E+01  0.4619622E+01 -0.4811501E+01   0.1000000E+01 -0.4806553E-16 -0.8872651E-32
           4
  0.2661158E+01 -0.4619622E+01  0.4811501E+01   0.3200775E+00  0.9798242E-16  0.9473914E+00
  0.2661158E+01  0.4619622E+01  0.4811501E+01   0.3200775E+00  0.9798242E-16  0.9473914E+00
  0.8021770E+00  0.4619622E+01  0.5439560E+01   0.3200775E+00  0.9798242E-16  0.9473914E+00
  0.8021770E+00 -0.4619622E+01  0.5439560E+01   0.3200775E+00  0.9798242E-16  0.9473914E+00
 WIGNER-SEITZ-PRIMCELL_END
 WIGNER-SEITZ-CONVCELL
           4
 -0.2661158E+01  0.4619622E+01 -0.4811501E+01  -0.3200775E+00 -0.6851727E-16 -0.9473914E+00
 -0.8021770E+00  0.4619622E+01 -0.5439560E+01  -0.3200775E+00 -0.6851727E-16 -0.9473914E+00
 -0.8021770E+00 -0.4619622E+01 -0.5439560E+01  -0.3200775E+00 -0.6851727E-16 -0.9473914E+00
 -0.2661158E+01 -0.4619622E+01 -0.4811501E+01  -0.3200775E+00 -0.6851727E-16 -0.9473914E+00
           4
 -0.2661158E+01  0.4619622E+01 -0.4811501E+01  -0.1000000E+01  0.4806553E-16  0.4436326E-32
 -0.2661158E+01 -0.4619622E+01 -0.4811501E+01  -0.1000000E+01  0.4806553E-16  0.4436326E-32
 -0.2661158E+01 -0.4619622E+01  0.4811501E+01  -0.1000000E+01  0.4806553E-16  0.4436326E-32
 -0.2661158E+01  0.4619622E+01  0.4811501E+01  -0.1000000E+01  0.4806553E-16  0.4436326E-32
           6
  0.2661158E+01 -0.4619622E+01  0.4811501E+01  -0.0000000E+00 -0.1000000E+01  0.0000000E+00
  0.8021770E+00 -0.4619622E+01  0.5439560E+01  -0.0000000E+00 -0.1000000E+01  0.0000000E+00
 -0.2661158E+01 -0.4619622E+01  0.4811501E+01  -0.0000000E+00 -0.1000000E+01  0.0000000E+00
 -0.2661158E+01 -0.4619622E+01 -0.4811501E+01  -0.0000000E+00 -0.1000000E+01  0.0000000E+00
 -0.8021770E+00 -0.4619622E+01 -0.5439560E+01  -0.0000000E+00 -0.1000000E+01  0.0000000E+00
  0.2661158E+01 -0.4619622E+01 -0.4811501E+01  -0.0000000E+00 -0.1000000E+01  0.0000000E+00
           4
  0.2661158E+01  0.4619622E+01 -0.4811501E+01   0.1784350E+00 -0.2184907E-15 -0.9839517E+00
  0.2661158E+01 -0.4619622E+01 -0.4811501E+01   0.1784350E+00 -0.2184907E-15 -0.9839517E+00
 -0.8021770E+00 -0.4619622E+01 -0.5439560E+01   0.1784350E+00 -0.2184907E-15 -0.9839517E+00
 -0.8021770E+00  0.4619622E+01 -0.5439560E+01   0.1784350E+00 -0.2184907E-15 -0.9839517E+00
           4
 -0.2661158E+01  0.4619622E+01  0.4811501E+01  -0.1784350E+00 -0.1092454E-15  0.9839517E+00
 -0.2661158E+01 -0.4619622E+01  0.4811501E+01  -0.1784350E+00 -0.1092454E-15  0.9839517E+00
  0.8021770E+00 -0.4619622E+01  0.5439560E+01  -0.1784350E+00 -0.1092454E-15  0.9839517E+00
  0.8021770E+00  0.4619622E+01  0.5439560E+01  -0.1784350E+00 -0.1092454E-15  0.9839517E+00
           6
  0.2661158E+01  0.4619622E+01 -0.4811501E+01   0.0000000E+00  0.1000000E+01  0.1062818E-14
 -0.8021770E+00  0.4619622E+01 -0.5439560E+01   0.0000000E+00  0.1000000E+01  0.1062818E-14
 -0.2661158E+01  0.4619622E+01 -0.4811501E+01   0.0000000E+00  0.1000000E+01  0.1062818E-14
 -0.2661158E+01  0.4619622E+01  0.4811501E+01   0.0000000E+00  0.1000000E+01  0.1062818E-14
  0.8021770E+00  0.4619622E+01  0.5439560E+01   0.0000000E+00  0.1000000E+01  0.1062818E-14
  0.2661158E+01  0.4619622E+01  0.4811501E+01   0.0000000E+00  0.1000000E+01  0.1062818E-14
           4
  0.2661158E+01  0.4619622E+01  0.4811501E+01   0.1000000E+01 -0.4806553E-16 -0.8872651E-32
  0.2661158E+01 -0.4619622E+01  0.4811501E+01   0.1000000E+01 -0.4806553E-16 -0.8872651E-32
  0.2661158E+01 -0.4619622E+01 -0.4811501E+01   0.1000000E+01 -0.4806553E-16 -0.8872651E-32
  0.2661158E+01  0.4619622E+01 -0.4811501E+01   0.1000000E+01 -0.4806553E-16 -0.8872651E-32
           4
  0.2661158E+01 -0.4619622E+01  0.4811501E+01   0.3200775E+00  0.9798242E-16  0.9473914E+00
  0.2661158E+01  0.4619622E+01  0.4811501E+01   0.3200775E+00  0.9798242E-16  0.9473914E+00
  0.8021770E+00  0.4619622E+01  0.5439560E+01   0.3200775E+00  0.9798242E-16  0.9473914E+00
  0.8021770E+00 -0.4619622E+01  0.5439560E+01   0.3200775E+00  0.9798242E-16  0.9473914E+00
 WIGNER-SEITZ-CONVCELL_END
 BRILLOUIN-ZONE-PRIMCELL
           4
  0.9969980E-01 -0.5411698E-01 -0.1470282E-01   0.9473914E+00  0.0000000E+00 -0.3200775E+00
  0.8818832E-01 -0.5411698E-01 -0.4877544E-01   0.9473914E+00  0.0000000E+00 -0.3200775E+00
  0.8818832E-01  0.5411698E-01 -0.4877544E-01   0.9473914E+00  0.0000000E+00 -0.3200775E+00
  0.9969980E-01  0.5411698E-01 -0.1470282E-01   0.9473914E+00  0.0000000E+00 -0.3200775E+00
           4
 -0.8818832E-01  0.5411698E-01 -0.4877544E-01   0.0000000E+00  0.9087108E-16 -0.1000000E+01
  0.8818832E-01  0.5411698E-01 -0.4877544E-01   0.0000000E+00  0.9087108E-16 -0.1000000E+01
  0.8818832E-01 -0.5411698E-01 -0.4877544E-01   0.0000000E+00  0.9087108E-16 -0.1000000E+01
 -0.8818832E-01 -0.5411698E-01 -0.4877544E-01   0.0000000E+00  0.9087108E-16 -0.1000000E+01
           6
  0.8818832E-01 -0.5411698E-01  0.4877544E-01   0.0000000E+00 -0.1000000E+01  0.0000000E+00
 -0.8818832E-01 -0.5411698E-01  0.4877544E-01   0.0000000E+00 -0.1000000E+01  0.0000000E+00
 -0.9969980E-01 -0.5411698E-01  0.1470282E-01   0.0000000E+00 -0.1000000E+01  0.0000000E+00
 -0.8818832E-01 -0.5411698E-01 -0.4877544E-01   0.0000000E+00 -0.1000000E+01  0.0000000E+00
  0.8818832E-01 -0.5411698E-01 -0.4877544E-01   0.0000000E+00 -0.1000000E+01  0.0000000E+00
  0.9969980E-01 -0.5411698E-01 -0.1470282E-01   0.0000000E+00 -0.1000000E+01  0.0000000E+00
           4
  0.8818832E-01  0.5411698E-01  0.4877544E-01   0.9839517E+00  0.3221911E-15  0.1784350E+00
  0.8818832E-01 -0.5411698E-01  0.4877544E-01   0.9839517E+00  0.3221911E-15  0.1784350E+00
  0.9969980E-01 -0.5411698E-01 -0.1470282E-01   0.9839517E+00  0.3221911E-15  0.1784350E+00
  0.9969980E-01  0.5411698E-01 -0.1470282E-01   0.9839517E+00  0.3221911E-15  0.1784350E+00
           4
 -0.8818832E-01  0.5411698E-01 -0.4877544E-01  -0.9839517E+00  0.4658185E-16 -0.1784350E+00
 -0.8818832E-01 -0.5411698E-01 -0.4877544E-01  -0.9839517E+00  0.4658185E-16 -0.1784350E+00
 -0.9969980E-01 -0.5411698E-01  0.1470282E-01  -0.9839517E+00  0.4658185E-16 -0.1784350E+00
 -0.9969980E-01  0.5411698E-01  0.1470282E-01  -0.9839517E+00  0.4658185E-16 -0.1784350E+00
           6
  0.9969980E-01  0.5411698E-01 -0.1470282E-01  -0.0000000E+00  0.1000000E+01 -0.0000000E+00
  0.8818832E-01  0.5411698E-01 -0.4877544E-01  -0.0000000E+00  0.1000000E+01 -0.0000000E+00
 -0.8818832E-01  0.5411698E-01 -0.4877544E-01  -0.0000000E+00  0.1000000E+01 -0.0000000E+00
 -0.9969980E-01  0.5411698E-01  0.1470282E-01  -0.0000000E+00  0.1000000E+01 -0.0000000E+00
 -0.8818832E-01  0.5411698E-01  0.4877544E-01  -0.0000000E+00  0.1000000E+01 -0.0000000E+00
  0.8818832E-01  0.5411698E-01  0.4877544E-01  -0.0000000E+00  0.1000000E+01 -0.0000000E+00
           4
  0.8818832E-01 -0.5411698E-01  0.4877544E-01  -0.0000000E+00 -0.9087108E-16  0.1000000E+01
  0.8818832E-01  0.5411698E-01  0.4877544E-01  -0.0000000E+00 -0.9087108E-16  0.1000000E+01
 -0.8818832E-01  0.5411698E-01  0.4877544E-01  -0.0000000E+00 -0.9087108E-16  0.1000000E+01
 -0.8818832E-01 -0.5411698E-01  0.4877544E-01  -0.0000000E+00 -0.9087108E-16  0.1000000E+01
           4
 -0.8818832E-01  0.5411698E-01  0.4877544E-01  -0.9473914E+00  0.3342350E-15  0.3200775E+00
 -0.9969980E-01  0.5411698E-01  0.1470282E-01  -0.9473914E+00  0.3342350E-15  0.3200775E+00
 -0.9969980E-01 -0.5411698E-01  0.1470282E-01  -0.9473914E+00  0.3342350E-15  0.3200775E+00
 -0.8818832E-01 -0.5411698E-01  0.4877544E-01  -0.9473914E+00  0.3342350E-15  0.3200775E+00
 BRILLOUIN-ZONE-PRIMCELL_END
 BRILLOUIN-ZONE-CONVCELL
           4
  0.9969980E-01 -0.5411698E-01 -0.1470282E-01   0.9473914E+00  0.0000000E+00 -0.3200775E+00
  0.8818832E-01 -0.5411698E-01 -0.4877544E-01   0.9473914E+00  0.0000000E+00 -0.3200775E+00
  0.8818832E-01  0.5411698E-01 -0.4877544E-01   0.9473914E+00  0.0000000E+00 -0.3200775E+00
  0.9969980E-01  0.5411698E-01 -0.1470282E-01   0.9473914E+00  0.0000000E+00 -0.3200775E+00
           4
 -0.8818832E-01  0.5411698E-01 -0.4877544E-01   0.0000000E+00  0.9087108E-16 -0.1000000E+01
  0.8818832E-01  0.5411698E-01 -0.4877544E-01   0.0000000E+00  0.9087108E-16 -0.1000000E+01
  0.8818832E-01 -0.5411698E-01 -0.4877544E-01   0.0000000E+00  0.9087108E-16 -0.1000000E+01
 -0.8818832E-01 -0.5411698E-01 -0.4877544E-01   0.0000000E+00  0.9087108E-16 -0.1000000E+01
           6
  0.8818832E-01 -0.5411698E-01  0.4877544E-01   0.0000000E+00 -0.1000000E+01  0.0000000E+00
 -0.8818832E-01 -0.5411698E-01  0.4877544E-01   0.0000000E+00 -0.1000000E+01  0.0000000E+00
 -0.9969980E-01 -0.5411698E-01  0.1470282E-01   0.0000000E+00 -0.1000000E+01  0.0000000E+00
 -0.8818832E-01 -0.5411698E-01 -0.4877544E-01   0.0000000E+00 -0.1000000E+01  0.0000000E+00
  0.8818832E-01 -0.5411698E-01 -0.4877544E-01   0.0000000E+00 -0.1000000E+01  0.0000000E+00
  0.9969980E-01 -0.5411698E-01 -0.1470282E-01   0.0000000E+00 -0.1000000E+01  0.0000000E+00
           4
  0.8818832E-01  0.5411698E-01  0.4877544E-01   0.9839517E+00  0.3221911E-15  0.1784350E+00
  0.8818832E-01 -0.5411698E-01  0.4877544E-01   0.9839517E+00  0.3221911E-15  0.1784350E+00
  0.9969980E-01 -0.5411698E-01 -0.1470282E-01   0.9839517E+00  0.3221911E-15  0.1784350E+00
  0.9969980E-01  0.5411698E-01 -0.1470282E-01   0.9839517E+00  0.3221911E-15  0.1784350E+00
           4
 -0.8818832E-01  0.5411698E-01 -0.4877544E-01  -0.9839517E+00  0.4658185E-16 -0.1784350E+00
 -0.8818832E-01 -0.5411698E-01 -0.4877544E-01  -0.9839517E+00  0.4658185E-16 -0.1784350E+00
 -0.9969980E-01 -0.5411698E-01  0.1470282E-01  -0.9839517E+00  0.4658185E-16 -0.1784350E+00
 -0.9969980E-01  0.5411698E-01  0.1470282E-01  -0.9839517E+00  0.4658185E-16 -0.1784350E+00
           6
  0.9969980E-01  0.5411698E-01 -0.1470282E-01  -0.0000000E+00  0.1000000E+01 -0.0000000E+00
  0.8818832E-01  0.5411698E-01 -0.4877544E-01  -0.0000000E+00  0.1000000E+01 -0.0000000E+00
 -0.8818832E-01  0.5411698E-01 -0.4877544E-01  -0.0000000E+00  0.1000000E+01 -0.0000000E+00
 -0.9969980E-01  0.5411698E-01  0.1470282E-01  -0.0000000E+00  0.1000000E+01 -0.0000000E+00
 -0.8818832E-01  0.5411698E-01  0.4877544E-01  -0.0000000E+00  0.1000000E+01 -0.0000000E+00
  0.8818832E-01  0.5411698E-01  0.4877544E-01  -0.0000000E+00  0.1000000E+01 -0.0000000E+00
           4
  0.8818832E-01 -0.5411698E-01  0.4877544E-01  -0.0000000E+00 -0.9087108E-16  0.1000000E+01
  0.8818832E-01  0.5411698E-01  0.4877544E-01  -0.0000000E+00 -0.9087108E-16  0.1000000E+01
 -0.8818832E-01  0.5411698E-01  0.4877544E-01  -0.0000000E+00 -0.9087108E-16  0.1000000E+01
 -0.8818832E-01 -0.5411698E-01  0.4877544E-01  -0.0000000E+00 -0.9087108E-16  0.1000000E+01
           4
 -0.8818832E-01  0.5411698E-01  0.4877544E-01  -0.9473914E+00  0.3342350E-15  0.3200775E+00
 -0.9969980E-01  0.5411698E-01  0.1470282E-01  -0.9473914E+00  0.3342350E-15  0.3200775E+00
 -0.9969980E-01 -0.5411698E-01  0.1470282E-01  -0.9473914E+00  0.3342350E-15  0.3200775E+00
 -0.8818832E-01 -0.5411698E-01  0.4877544E-01  -0.9473914E+00  0.3342350E-15  0.3200775E+00
 BRILLOUIN-ZONE-CONVCELL_END
 ATOMS
   19    0.0000000000    4.5056707990    0.0000000000    0.0000000000   -0.0001037800    0.0000000000
   19    2.6611570940    0.0837713660    0.0000000000    0.0000000000    0.0001762500    0.0000000000
   12   -0.9294910900    0.0404330460    5.1255291630    0.0000000000    0.0001164700    0.0000000000
   12   -0.9294910900    3.0792540790    5.1255291630    0.0000000000    0.0000160600    0.0000000000
   12   -0.9294910900    6.1481374650    5.1255291630    0.0000000000   -0.0000842700    0.0000000000
   12    1.7316660040    4.5539321270    5.1255291630    0.0000000000    0.0001058800    0.0000000000
   12    1.7316660040    7.7102942090    5.1255291630    0.0000000000    0.0000026700    0.0000000000
   12    1.7316660040    1.5939567950    5.1255291630    0.0000000000   -0.0000464500    0.0000000000
   14    0.0199868240    1.5230423390    2.3238424850   -0.0000195800    0.0000233900   -0.0000272400
   14    3.4433450540    1.5230423390    7.9272161480    0.0000195800    0.0000233900    0.0000272400
   14    3.5499996830    7.7066745430    7.8620893880    0.0000563400   -0.0000279600    0.0000800800
   14   -0.0866674870    7.7066745430    2.3889687840   -0.0000563400   -0.0000279600   -0.0000800800
   14    2.5712507430    6.1595650760    2.3668938880   -0.0000658500    0.0000024700   -0.0000065400
   14    0.8920814470    6.1595650760    7.8841642840    0.0000658500    0.0000024700    0.0000065400
   13    0.7781155720    3.0593342600    7.9073510610    0.0000175100    0.0000325200    0.0001007300
   13    2.6852164090    3.0593342600    2.3437074190   -0.0000175100    0.0000325200   -0.0001007300
    8   -0.0408653170    1.5132438260    3.9580416270   -0.0000237000    0.0000285800   -0.0000739100
    8    3.5041969800    1.5132438260    6.2930173140    0.0000237000    0.0000285800    0.0000739100
    8    3.5256035900    7.6972230730    6.2409626820   -0.0000412000   -0.0001176200    0.0000525500
    8   -0.0622715630    7.6972230730    4.0100953370    0.0000412000   -0.0001176200   -0.0000525500
    8    2.6004593960    6.1827991510    3.9950982740    0.0000310600    0.0000234500   -0.0000050600
    8    0.8628724580    6.1827991510    6.2559600520   -0.0000310600    0.0000234500    0.0000050600
    8    0.8035847460    3.0748270560    6.1739017010   -0.0000147300   -0.0000871500    0.0000733500
    8    2.6597472620    3.0748270560    4.0771566250    0.0000147300   -0.0000871500   -0.0000733500
    8    1.4954872610    1.8916556950    1.7389489820   -0.0000035000    0.0000587700    0.0000707600
    8    1.9678449630    1.8916556950    8.5121090360    0.0000035000    0.0000587700   -0.0000707600
    8    4.9944417870    9.2110372070    1.7716259400   -0.0000118400    0.0000146800    0.0000114200
    8   -1.5311097710    9.2110372070    8.4794320790    0.0000118400    0.0000146800   -0.0000114200
    8    2.1120414660    7.1461276700    8.4637858040    0.0000968600   -0.0001100700    0.0000379800
    8    1.3512907300    7.1461276700    1.7872723680   -0.0000968600   -0.0001100700   -0.0000379800
    8    4.0078154400    6.7785037270    1.7783013470   -0.0000969000    0.0000089600    0.0000283800
    8   -0.5444835110    6.7785037270    8.4727569790    0.0000969000    0.0000089600   -0.0000283800
    8    2.3476805190    4.6936477460    1.7144148540    0.0000104500   -0.0000250200    0.0000482200
    8    1.1156513350    4.6936477460    8.5366434720   -0.0000104500   -0.0000250200   -0.0000482200
    8   -0.7780697930    2.5355175530    8.5711914060    0.0000678000    0.0000014300   -0.0000052500
    8    4.2414017550    2.5355175530    1.6798667660   -0.0000678000    0.0000014300    0.0000052500
    8   -0.0413735430    4.6575000430    4.0656376500    0.0000282200    0.0000321600    0.0000425300
    8    3.5047057620    4.6575000430    6.1854203680   -0.0000282200    0.0000321600   -0.0000425300
    8    2.6243410760    9.2352923670    4.1005396570   -0.0000762600    0.0000413800   -0.0000100200
    8    0.8389910420    9.2352923670    6.1505180640    0.0000762600    0.0000413800    0.0000100200
    1   -0.0295268360    4.5837346680    3.1029158000   -0.0000567500   -0.0000402000    0.0000077500
    1    3.4928590230    4.5837346680    7.1481428330    0.0000567500   -0.0000402000   -0.0000077500
    1    2.6060457620    0.1242009400    3.1426118780   -0.0000493400    0.0000488100    0.0000198200
    1    0.8572862470    0.1242009400    7.1084464480    0.0000493400    0.0000488100   -0.0000198200
   19   -1.8589810960    4.5056707990   10.2510605460    0.0000000000   -0.0001037800    0.0000000000
   19    0.8021759980    0.0837713660   10.2510605460    0.0000000000    0.0001762500    0.0000000000
   19    5.3223162170    4.5056707990    0.0000000000    0.0000000000   -0.0001037800    0.0000000000
   12    4.3928251270    0.0404330460    5.1255291630    0.0000000000    0.0001164700    0.0000000000
   12    4.3928251270    3.0792540790    5.1255291630    0.0000000000    0.0000160600    0.0000000000
   12    4.3928251270    6.1481374650    5.1255291630    0.0000000000   -0.0000842700    0.0000000000
   19    3.4633351210    4.5056707990   10.2510605460    0.0000000000   -0.0001037800    0.0000000000
 FRAMES
1      0.0000000000    0.0000000000    0.0000000000      5.3223162170    0.0000000000    0.0000000000
1      0.0000000000    0.0000000000    0.0000000000      0.0000000000    9.2392448880    0.0000000000
1      0.0000000000    0.0000000000    0.0000000000     -1.8589810960    0.0000000000   10.2510605460
1     -1.8589810960    0.0000000000   10.2510605460      3.4633351210    0.0000000000   10.2510605460
1     -1.8589810960    0.0000000000   10.2510605460     -1.8589810960    9.2392448880   10.2510605460
1      0.0000000000    9.2392448880    0.0000000000      5.3223162170    9.2392448880    0.0000000000
1      0.0000000000    9.2392448880    0.0000000000     -1.8589810960    9.2392448880   10.2510605460
1     -1.8589810960    9.2392448880   10.2510605460      3.4633351210    9.2392448880   10.2510605460
1      5.3223162170    0.0000000000    0.0000000000      5.3223162170    9.2392448880    0.0000000000
1      5.3223162170    0.0000000000    0.0000000000      3.4633351210    0.0000000000   10.2510605460
1      3.4633351210    0.0000000000   10.2510605460      3.4633351210    9.2392448880   10.2510605460
1      5.3223162170    9.2392448880    0.0000000000      3.4633351210    9.2392448880   10.2510605460
