 INFO
nunit      1    1    1
unit   cell
celltype   primcell
shape   parapipedal
 END_INFO
 DIM-GROUP
           3           1
 PRIMVEC
    5.2855997630    0.0000000000    0.0000000000
    0.0000000000    9.1787981240    0.0000000000
   -1.7735195730    0.0000000000   10.0361012630
 CONVVEC
    5.2855997630    0.0000000000    0.0000000000
    0.0000000000    9.1787981240    0.0000000000
   -1.7735195730    0.0000000000   10.0361012630
 PRIMCOORD
          44           1
 19      0.0000000000     4.5378251910     0.0000000000     0.0000000000     0.0005344800     0.0000000000
 19      2.6427998810     0.0312969610     0.0000000000     0.0000000000    -0.0007526200     0.0000000000
 12     -0.8867597870     0.0343780790     5.0180506310     0.0000000000     0.0001744900     0.0000000000
 12     -0.8867597870     3.0520546910     5.0180506310     0.0000000000    -0.0005847400     0.0000000000
 12     -0.8867597870     6.1076689030     5.0180506310     0.0000000000     0.0004758700     0.0000000000
 12      1.7560400950     7.6665815500     5.0180506310     0.0000000000    -0.0002936700     0.0000000000
 12      1.7560400950     1.5522686550     5.0180506310     0.0000000000     0.0004060800     0.0000000000
 26      1.7560400950     4.5160160740     5.0180506310     0.0000000000    -0.0008640900     0.0000000000
 14      0.0474749650     1.5152789820     2.2199882550     0.0002039800     0.0003754800     0.0003029300
 14      3.4646051180     1.5152789820     7.8161131580    -0.0002039800     0.0003754800    -0.0003029300
 14      3.5672188460     7.6608078360     7.7556652950     0.0000052400    -0.0005447300    -0.0004129000
 14     -0.0551386570     7.6608078360     2.2804359680    -0.0000052400    -0.0005447300     0.0004129000
 14      2.5867105550     6.1283526540     2.2644634580    -0.0000048200    -0.0003803900     0.0002406600
 14      0.9253695820     6.1283526540     7.7716381050     0.0000048200    -0.0003803900    -0.0002406600
 13      0.8168479180     3.0381474110     7.7947545700     0.0001319400     0.0008086900    -0.0000164200
 13      2.6952321130     3.0381474110     2.2413466930    -0.0001319400     0.0008086900     0.0000164200
  8     -0.0060220050     1.4979464020     3.8512914260     0.0000285800    -0.0007956300     0.0008830100
  8      3.5181020890     1.4979464020     6.1848095360    -0.0000285800    -0.0007956300    -0.0008830100
  8      3.5366686450     7.6474462240     6.1378186080    -0.0000858700     0.0006456800    -0.0004013600
  8     -0.0245884560     7.6474462240     3.8982826550     0.0000858700     0.0006456800     0.0004013600
  8      2.6340155760     6.1871444520     3.8871886510    -0.0002305800     0.0000461700     0.0002001300
  8      0.8780646670     6.1871444520     6.1489123100     0.0002305800     0.0000461700    -0.0002001300
  8      0.8272445390     3.0103422550     6.0608922820     0.0005803100     0.0000745700    -0.0001397500
  8      2.6848356510     3.0103422550     3.9752089810    -0.0005803100     0.0000745700     0.0001397500
  8      1.5283795140     1.8559443740     1.6431005270     0.0004354300    -0.0002506200    -0.0000398600
  8      1.9837007030     1.8559443740     8.3930005850    -0.0004354300    -0.0002506200     0.0000398600
  8      4.9567630230     9.1558297650     1.6633629400     0.0000233000    -0.0002439500     0.0005554300
  8     -1.4446828600     9.1558297650     8.3727384740    -0.0000233000    -0.0002439500    -0.0005554300
  8      2.1224158230     7.1314888450     8.3606791750     0.0000727700    -0.0005862700    -0.0002302900
  8      1.3896643660     7.1314888450     1.6754220880    -0.0000727700    -0.0005862700     0.0002302900
  8      4.0290783630     6.7084886760     1.6619299410    -0.0003073900     0.0000393100    -0.0005014500
  8     -0.5169982270     6.7084886760     8.3741716230     0.0003073900     0.0000393100     0.0005014500
  8      2.3206857620     4.6635995230     1.6344985030    -0.0000879400     0.0001350600    -0.0003802100
  8      1.1913944280     4.6635995230     8.4016027590     0.0000879400     0.0001350600     0.0003802100
  8     -0.7433245430     2.5492815310     8.4537280070    -0.0002650600     0.0002767800     0.0002975900
  8      4.2554046540     2.5492815310     1.5823732550     0.0002650600     0.0002767800    -0.0002975900
  8     -0.0620535650     4.6207413960     3.9288012540    -0.0000487600     0.0001752000     0.0003661500
  8      3.5741336490     4.6207413960     6.1072997080     0.0000487600     0.0001752000    -0.0003661500
  8      2.6440764290     9.1694986860     3.9838379910    -0.0000146000     0.0003093100     0.0002224600
  8      0.8680037600     9.1694986860     6.0522632720     0.0000146000     0.0003093100    -0.0002224600
  1      0.0613068240     4.5447517410     2.9735978060    -0.0008418700     0.0000900800     0.0000700400
  1      3.4507733230     4.5447517410     7.0625034570     0.0008418700     0.0000900800    -0.0000700400
  1      2.6167861020     0.1331022830     3.0286952470     0.0000094200     0.0002773600     0.0002111400
  1      0.8952941410     0.1331022830     7.0074057140    -0.0000094200     0.0002773600    -0.0002111400
 CONVCOORD
          44           1
 19      0.0000000000     4.5378251910     0.0000000000
 19      2.6427998810     0.0312969610     0.0000000000
 12     -0.8867597870     0.0343780790     5.0180506310
 12     -0.8867597870     3.0520546910     5.0180506310
 12     -0.8867597870     6.1076689030     5.0180506310
 12      1.7560400950     7.6665815500     5.0180506310
 12      1.7560400950     1.5522686550     5.0180506310
 26      1.7560400950     4.5160160740     5.0180506310
 14      0.0474749650     1.5152789820     2.2199882550
 14      3.4646051180     1.5152789820     7.8161131580
 14      3.5672188460     7.6608078360     7.7556652950
 14     -0.0551386570     7.6608078360     2.2804359680
 14      2.5867105550     6.1283526540     2.2644634580
 14      0.9253695820     6.1283526540     7.7716381050
 13      0.8168479180     3.0381474110     7.7947545700
 13      2.6952321130     3.0381474110     2.2413466930
  8     -0.0060220050     1.4979464020     3.8512914260
  8      3.5181020890     1.4979464020     6.1848095360
  8      3.5366686450     7.6474462240     6.1378186080
  8     -0.0245884560     7.6474462240     3.8982826550
  8      2.6340155760     6.1871444520     3.8871886510
  8      0.8780646670     6.1871444520     6.1489123100
  8      0.8272445390     3.0103422550     6.0608922820
  8      2.6848356510     3.0103422550     3.9752089810
  8      1.5283795140     1.8559443740     1.6431005270
  8      1.9837007030     1.8559443740     8.3930005850
  8      4.9567630230     9.1558297650     1.6633629400
  8     -1.4446828600     9.1558297650     8.3727384740
  8      2.1224158230     7.1314888450     8.3606791750
  8      1.3896643660     7.1314888450     1.6754220880
  8      4.0290783630     6.7084886760     1.6619299410
  8     -0.5169982270     6.7084886760     8.3741716230
  8      2.3206857620     4.6635995230     1.6344985030
  8      1.1913944280     4.6635995230     8.4016027590
  8     -0.7433245430     2.5492815310     8.4537280070
  8      4.2554046540     2.5492815310     1.5823732550
  8     -0.0620535650     4.6207413960     3.9288012540
  8      3.5741336490     4.6207413960     6.1072997080
  8      2.6440764290     9.1694986860     3.9838379910
  8      0.8680037600     9.1694986860     6.0522632720
  1      0.0613068240     4.5447517410     2.9735978060
  1      3.4507733230     4.5447517410     7.0625034570
  1      2.6167861020     0.1331022830     3.0286952470
  1      0.8952941410     0.1331022830     7.0074057140
 RECIP-PRIMVEC
    0.1891932883   -0.0000000000    0.0334331023

    0.0000000000    0.1089467255   -0.0000000000

    0.0000000000    0.0000000000    0.0996402860

 RECIP-CONVVEC
    0.1891932883   -0.0000000000    0.0334331023

    0.0000000000    0.1089467255   -0.0000000000

    0.0000000000    0.0000000000    0.0996402860

 WIGNER-SEITZ-PRIMCELL
           4
 -0.2642800E+01  0.4589399E+01 -0.4707734E+01  -0.3303039E+00  0.0000000E+00 -0.9438746E+00
 -0.8692803E+00  0.4589399E+01 -0.5328367E+01  -0.3303039E+00  0.0000000E+00 -0.9438746E+00
 -0.8692803E+00 -0.4589399E+01 -0.5328367E+01  -0.3303039E+00  0.0000000E+00 -0.9438746E+00
 -0.2642800E+01 -0.4589399E+01 -0.4707734E+01  -0.3303039E+00  0.0000000E+00 -0.9438746E+00
           4
 -0.2642800E+01  0.4589399E+01 -0.4707734E+01  -0.1000000E+01 -0.0000000E+00 -0.0000000E+00
 -0.2642800E+01 -0.4589399E+01 -0.4707734E+01  -0.1000000E+01 -0.0000000E+00 -0.0000000E+00
 -0.2642800E+01 -0.4589399E+01  0.4707734E+01  -0.1000000E+01 -0.0000000E+00 -0.0000000E+00
 -0.2642800E+01  0.4589399E+01  0.4707734E+01  -0.1000000E+01 -0.0000000E+00 -0.0000000E+00
           6
  0.2642800E+01 -0.4589399E+01  0.4707734E+01  -0.0000000E+00 -0.1000000E+01 -0.5415026E-15
  0.8692803E+00 -0.4589399E+01  0.5328367E+01  -0.0000000E+00 -0.1000000E+01 -0.5415026E-15
 -0.2642800E+01 -0.4589399E+01  0.4707734E+01  -0.0000000E+00 -0.1000000E+01 -0.5415026E-15
 -0.2642800E+01 -0.4589399E+01 -0.4707734E+01  -0.0000000E+00 -0.1000000E+01 -0.5415026E-15
 -0.8692803E+00 -0.4589399E+01 -0.5328367E+01  -0.0000000E+00 -0.1000000E+01 -0.5415026E-15
  0.2642800E+01 -0.4589399E+01 -0.4707734E+01  -0.0000000E+00 -0.1000000E+01 -0.5415026E-15
           4
  0.2642800E+01  0.4589399E+01 -0.4707734E+01   0.1740178E+00  0.0000000E+00 -0.9847425E+00
  0.2642800E+01 -0.4589399E+01 -0.4707734E+01   0.1740178E+00  0.0000000E+00 -0.9847425E+00
 -0.8692803E+00 -0.4589399E+01 -0.5328367E+01   0.1740178E+00  0.0000000E+00 -0.9847425E+00
 -0.8692803E+00  0.4589399E+01 -0.5328367E+01   0.1740178E+00  0.0000000E+00 -0.9847425E+00
           4
 -0.2642800E+01  0.4589399E+01  0.4707734E+01  -0.1740178E+00 -0.1085257E-15  0.9847425E+00
 -0.2642800E+01 -0.4589399E+01  0.4707734E+01  -0.1740178E+00 -0.1085257E-15  0.9847425E+00
  0.8692803E+00 -0.4589399E+01  0.5328367E+01  -0.1740178E+00 -0.1085257E-15  0.9847425E+00
  0.8692803E+00  0.4589399E+01  0.5328367E+01  -0.1740178E+00 -0.1085257E-15  0.9847425E+00
           6
  0.2642800E+01  0.4589399E+01 -0.4707734E+01   0.0000000E+00  0.1000000E+01 -0.0000000E+00
 -0.8692803E+00  0.4589399E+01 -0.5328367E+01   0.0000000E+00  0.1000000E+01 -0.0000000E+00
 -0.2642800E+01  0.4589399E+01 -0.4707734E+01   0.0000000E+00  0.1000000E+01 -0.0000000E+00
 -0.2642800E+01  0.4589399E+01  0.4707734E+01   0.0000000E+00  0.1000000E+01 -0.0000000E+00
  0.8692803E+00  0.4589399E+01  0.5328367E+01   0.0000000E+00  0.1000000E+01 -0.0000000E+00
  0.2642800E+01  0.4589399E+01  0.4707734E+01   0.0000000E+00  0.1000000E+01 -0.0000000E+00
           4
  0.2642800E+01  0.4589399E+01  0.4707734E+01   0.1000000E+01  0.0000000E+00  0.0000000E+00
  0.2642800E+01 -0.4589399E+01  0.4707734E+01   0.1000000E+01  0.0000000E+00  0.0000000E+00
  0.2642800E+01 -0.4589399E+01 -0.4707734E+01   0.1000000E+01  0.0000000E+00  0.0000000E+00
  0.2642800E+01  0.4589399E+01 -0.4707734E+01   0.1000000E+01  0.0000000E+00  0.0000000E+00
           4
  0.8692803E+00 -0.4589399E+01  0.5328367E+01   0.3303039E+00 -0.2059931E-15  0.9438746E+00
  0.2642800E+01 -0.4589399E+01  0.4707734E+01   0.3303039E+00 -0.2059931E-15  0.9438746E+00
  0.2642800E+01  0.4589399E+01  0.4707734E+01   0.3303039E+00 -0.2059931E-15  0.9438746E+00
  0.8692803E+00  0.4589399E+01  0.5328367E+01   0.3303039E+00 -0.2059931E-15  0.9438746E+00
 WIGNER-SEITZ-PRIMCELL_END
 WIGNER-SEITZ-CONVCELL
           4
 -0.2642800E+01  0.4589399E+01 -0.4707734E+01  -0.3303039E+00  0.0000000E+00 -0.9438746E+00
 -0.8692803E+00  0.4589399E+01 -0.5328367E+01  -0.3303039E+00  0.0000000E+00 -0.9438746E+00
 -0.8692803E+00 -0.4589399E+01 -0.5328367E+01  -0.3303039E+00  0.0000000E+00 -0.9438746E+00
 -0.2642800E+01 -0.4589399E+01 -0.4707734E+01  -0.3303039E+00  0.0000000E+00 -0.9438746E+00
           4
 -0.2642800E+01  0.4589399E+01 -0.4707734E+01  -0.1000000E+01 -0.0000000E+00 -0.0000000E+00
 -0.2642800E+01 -0.4589399E+01 -0.4707734E+01  -0.1000000E+01 -0.0000000E+00 -0.0000000E+00
 -0.2642800E+01 -0.4589399E+01  0.4707734E+01  -0.1000000E+01 -0.0000000E+00 -0.0000000E+00
 -0.2642800E+01  0.4589399E+01  0.4707734E+01  -0.1000000E+01 -0.0000000E+00 -0.0000000E+00
           6
  0.2642800E+01 -0.4589399E+01  0.4707734E+01  -0.0000000E+00 -0.1000000E+01 -0.5415026E-15
  0.8692803E+00 -0.4589399E+01  0.5328367E+01  -0.0000000E+00 -0.1000000E+01 -0.5415026E-15
 -0.2642800E+01 -0.4589399E+01  0.4707734E+01  -0.0000000E+00 -0.1000000E+01 -0.5415026E-15
 -0.2642800E+01 -0.4589399E+01 -0.4707734E+01  -0.0000000E+00 -0.1000000E+01 -0.5415026E-15
 -0.8692803E+00 -0.4589399E+01 -0.5328367E+01  -0.0000000E+00 -0.1000000E+01 -0.5415026E-15
  0.2642800E+01 -0.4589399E+01 -0.4707734E+01  -0.0000000E+00 -0.1000000E+01 -0.5415026E-15
           4
  0.2642800E+01  0.4589399E+01 -0.4707734E+01   0.1740178E+00  0.0000000E+00 -0.9847425E+00
  0.2642800E+01 -0.4589399E+01 -0.4707734E+01   0.1740178E+00  0.0000000E+00 -0.9847425E+00
 -0.8692803E+00 -0.4589399E+01 -0.5328367E+01   0.1740178E+00  0.0000000E+00 -0.9847425E+00
 -0.8692803E+00  0.4589399E+01 -0.5328367E+01   0.1740178E+00  0.0000000E+00 -0.9847425E+00
           4
 -0.2642800E+01  0.4589399E+01  0.4707734E+01  -0.1740178E+00 -0.1085257E-15  0.9847425E+00
 -0.2642800E+01 -0.4589399E+01  0.4707734E+01  -0.1740178E+00 -0.1085257E-15  0.9847425E+00
  0.8692803E+00 -0.4589399E+01  0.5328367E+01  -0.1740178E+00 -0.1085257E-15  0.9847425E+00
  0.8692803E+00  0.4589399E+01  0.5328367E+01  -0.1740178E+00 -0.1085257E-15  0.9847425E+00
           6
  0.2642800E+01  0.4589399E+01 -0.4707734E+01   0.0000000E+00  0.1000000E+01 -0.0000000E+00
 -0.8692803E+00  0.4589399E+01 -0.5328367E+01   0.0000000E+00  0.1000000E+01 -0.0000000E+00
 -0.2642800E+01  0.4589399E+01 -0.4707734E+01   0.0000000E+00  0.1000000E+01 -0.0000000E+00
 -0.2642800E+01  0.4589399E+01  0.4707734E+01   0.0000000E+00  0.1000000E+01 -0.0000000E+00
  0.8692803E+00  0.4589399E+01  0.5328367E+01   0.0000000E+00  0.1000000E+01 -0.0000000E+00
  0.2642800E+01  0.4589399E+01  0.4707734E+01   0.0000000E+00  0.1000000E+01 -0.0000000E+00
           4
  0.2642800E+01  0.4589399E+01  0.4707734E+01   0.1000000E+01  0.0000000E+00  0.0000000E+00
  0.2642800E+01 -0.4589399E+01  0.4707734E+01   0.1000000E+01  0.0000000E+00  0.0000000E+00
  0.2642800E+01 -0.4589399E+01 -0.4707734E+01   0.1000000E+01  0.0000000E+00  0.0000000E+00
  0.2642800E+01  0.4589399E+01 -0.4707734E+01   0.1000000E+01  0.0000000E+00  0.0000000E+00
           4
  0.8692803E+00 -0.4589399E+01  0.5328367E+01   0.3303039E+00 -0.2059931E-15  0.9438746E+00
  0.2642800E+01 -0.4589399E+01  0.4707734E+01   0.3303039E+00 -0.2059931E-15  0.9438746E+00
  0.2642800E+01  0.4589399E+01  0.4707734E+01   0.3303039E+00 -0.2059931E-15  0.9438746E+00
  0.8692803E+00  0.4589399E+01  0.5328367E+01   0.3303039E+00 -0.2059931E-15  0.9438746E+00
 WIGNER-SEITZ-CONVCELL_END
 BRILLOUIN-ZONE-PRIMCELL
           4
  0.1004465E+00 -0.5447336E-01 -0.1638704E-01   0.9438746E+00  0.5345016E-16 -0.3303039E+00
  0.8874678E-01 -0.5447336E-01 -0.4982014E-01   0.9438746E+00  0.5345016E-16 -0.3303039E+00
  0.8874678E-01  0.5447336E-01 -0.4982014E-01   0.9438746E+00  0.5345016E-16 -0.3303039E+00
  0.1004465E+00  0.5447336E-01 -0.1638704E-01   0.9438746E+00  0.5345016E-16 -0.3303039E+00
           4
 -0.8874678E-01  0.5447336E-01 -0.4982014E-01   0.0000000E+00  0.0000000E+00 -0.1000000E+01
  0.8874678E-01  0.5447336E-01 -0.4982014E-01   0.0000000E+00  0.0000000E+00 -0.1000000E+01
  0.8874678E-01 -0.5447336E-01 -0.4982014E-01   0.0000000E+00  0.0000000E+00 -0.1000000E+01
 -0.8874678E-01 -0.5447336E-01 -0.4982014E-01   0.0000000E+00  0.0000000E+00 -0.1000000E+01
           6
  0.8874678E-01 -0.5447336E-01  0.4982014E-01   0.0000000E+00 -0.1000000E+01 -0.2923284E-15
 -0.8874678E-01 -0.5447336E-01  0.4982014E-01   0.0000000E+00 -0.1000000E+01 -0.2923284E-15
 -0.1004465E+00 -0.5447336E-01  0.1638704E-01   0.0000000E+00 -0.1000000E+01 -0.2923284E-15
 -0.8874678E-01 -0.5447336E-01 -0.4982014E-01   0.0000000E+00 -0.1000000E+01 -0.2923284E-15
  0.8874678E-01 -0.5447336E-01 -0.4982014E-01   0.0000000E+00 -0.1000000E+01 -0.2923284E-15
  0.1004465E+00 -0.5447336E-01 -0.1638704E-01   0.0000000E+00 -0.1000000E+01 -0.2923284E-15
           4
  0.8874678E-01  0.5447336E-01  0.4982014E-01   0.9847425E+00  0.2220266E-16  0.1740178E+00
  0.8874678E-01 -0.5447336E-01  0.4982014E-01   0.9847425E+00  0.2220266E-16  0.1740178E+00
  0.1004465E+00 -0.5447336E-01 -0.1638704E-01   0.9847425E+00  0.2220266E-16  0.1740178E+00
  0.1004465E+00  0.5447336E-01 -0.1638704E-01   0.9847425E+00  0.2220266E-16  0.1740178E+00
           4
 -0.1004465E+00  0.5447336E-01  0.1638704E-01  -0.9847425E+00  0.1480177E-16 -0.1740178E+00
 -0.8874678E-01  0.5447336E-01 -0.4982014E-01  -0.9847425E+00  0.1480177E-16 -0.1740178E+00
 -0.8874678E-01 -0.5447336E-01 -0.4982014E-01  -0.9847425E+00  0.1480177E-16 -0.1740178E+00
 -0.1004465E+00 -0.5447336E-01  0.1638704E-01  -0.9847425E+00  0.1480177E-16 -0.1740178E+00
           6
  0.1004465E+00  0.5447336E-01 -0.1638704E-01  -0.0000000E+00  0.1000000E+01  0.2923284E-15
  0.8874678E-01  0.5447336E-01 -0.4982014E-01  -0.0000000E+00  0.1000000E+01  0.2923284E-15
 -0.8874678E-01  0.5447336E-01 -0.4982014E-01  -0.0000000E+00  0.1000000E+01  0.2923284E-15
 -0.1004465E+00  0.5447336E-01  0.1638704E-01  -0.0000000E+00  0.1000000E+01  0.2923284E-15
 -0.8874678E-01  0.5447336E-01  0.4982014E-01  -0.0000000E+00  0.1000000E+01  0.2923284E-15
  0.8874678E-01  0.5447336E-01  0.4982014E-01  -0.0000000E+00  0.1000000E+01  0.2923284E-15
           4
 -0.8874678E-01 -0.5447336E-01  0.4982014E-01  -0.0000000E+00 -0.0000000E+00  0.1000000E+01
  0.8874678E-01 -0.5447336E-01  0.4982014E-01  -0.0000000E+00 -0.0000000E+00  0.1000000E+01
  0.8874678E-01  0.5447336E-01  0.4982014E-01  -0.0000000E+00 -0.0000000E+00  0.1000000E+01
 -0.8874678E-01  0.5447336E-01  0.4982014E-01  -0.0000000E+00 -0.0000000E+00  0.1000000E+01
           4
 -0.1004465E+00  0.5447336E-01  0.1638704E-01  -0.9438746E+00 -0.0000000E+00  0.3303039E+00
 -0.1004465E+00 -0.5447336E-01  0.1638704E-01  -0.9438746E+00 -0.0000000E+00  0.3303039E+00
 -0.8874678E-01 -0.5447336E-01  0.4982014E-01  -0.9438746E+00 -0.0000000E+00  0.3303039E+00
 -0.8874678E-01  0.5447336E-01  0.4982014E-01  -0.9438746E+00 -0.0000000E+00  0.3303039E+00
 BRILLOUIN-ZONE-PRIMCELL_END
 BRILLOUIN-ZONE-CONVCELL
           4
  0.1004465E+00 -0.5447336E-01 -0.1638704E-01   0.9438746E+00  0.5345016E-16 -0.3303039E+00
  0.8874678E-01 -0.5447336E-01 -0.4982014E-01   0.9438746E+00  0.5345016E-16 -0.3303039E+00
  0.8874678E-01  0.5447336E-01 -0.4982014E-01   0.9438746E+00  0.5345016E-16 -0.3303039E+00
  0.1004465E+00  0.5447336E-01 -0.1638704E-01   0.9438746E+00  0.5345016E-16 -0.3303039E+00
           4
 -0.8874678E-01  0.5447336E-01 -0.4982014E-01   0.0000000E+00  0.0000000E+00 -0.1000000E+01
  0.8874678E-01  0.5447336E-01 -0.4982014E-01   0.0000000E+00  0.0000000E+00 -0.1000000E+01
  0.8874678E-01 -0.5447336E-01 -0.4982014E-01   0.0000000E+00  0.0000000E+00 -0.1000000E+01
 -0.8874678E-01 -0.5447336E-01 -0.4982014E-01   0.0000000E+00  0.0000000E+00 -0.1000000E+01
           6
  0.8874678E-01 -0.5447336E-01  0.4982014E-01   0.0000000E+00 -0.1000000E+01 -0.2923284E-15
 -0.8874678E-01 -0.5447336E-01  0.4982014E-01   0.0000000E+00 -0.1000000E+01 -0.2923284E-15
 -0.1004465E+00 -0.5447336E-01  0.1638704E-01   0.0000000E+00 -0.1000000E+01 -0.2923284E-15
 -0.8874678E-01 -0.5447336E-01 -0.4982014E-01   0.0000000E+00 -0.1000000E+01 -0.2923284E-15
  0.8874678E-01 -0.5447336E-01 -0.4982014E-01   0.0000000E+00 -0.1000000E+01 -0.2923284E-15
  0.1004465E+00 -0.5447336E-01 -0.1638704E-01   0.0000000E+00 -0.1000000E+01 -0.2923284E-15
           4
  0.8874678E-01  0.5447336E-01  0.4982014E-01   0.9847425E+00  0.2220266E-16  0.1740178E+00
  0.8874678E-01 -0.5447336E-01  0.4982014E-01   0.9847425E+00  0.2220266E-16  0.1740178E+00
  0.1004465E+00 -0.5447336E-01 -0.1638704E-01   0.9847425E+00  0.2220266E-16  0.1740178E+00
  0.1004465E+00  0.5447336E-01 -0.1638704E-01   0.9847425E+00  0.2220266E-16  0.1740178E+00
           4
 -0.1004465E+00  0.5447336E-01  0.1638704E-01  -0.9847425E+00  0.1480177E-16 -0.1740178E+00
 -0.8874678E-01  0.5447336E-01 -0.4982014E-01  -0.9847425E+00  0.1480177E-16 -0.1740178E+00
 -0.8874678E-01 -0.5447336E-01 -0.4982014E-01  -0.9847425E+00  0.1480177E-16 -0.1740178E+00
 -0.1004465E+00 -0.5447336E-01  0.1638704E-01  -0.9847425E+00  0.1480177E-16 -0.1740178E+00
           6
  0.1004465E+00  0.5447336E-01 -0.1638704E-01  -0.0000000E+00  0.1000000E+01  0.2923284E-15
  0.8874678E-01  0.5447336E-01 -0.4982014E-01  -0.0000000E+00  0.1000000E+01  0.2923284E-15
 -0.8874678E-01  0.5447336E-01 -0.4982014E-01  -0.0000000E+00  0.1000000E+01  0.2923284E-15
 -0.1004465E+00  0.5447336E-01  0.1638704E-01  -0.0000000E+00  0.1000000E+01  0.2923284E-15
 -0.8874678E-01  0.5447336E-01  0.4982014E-01  -0.0000000E+00  0.1000000E+01  0.2923284E-15
  0.8874678E-01  0.5447336E-01  0.4982014E-01  -0.0000000E+00  0.1000000E+01  0.2923284E-15
           4
 -0.8874678E-01 -0.5447336E-01  0.4982014E-01  -0.0000000E+00 -0.0000000E+00  0.1000000E+01
  0.8874678E-01 -0.5447336E-01  0.4982014E-01  -0.0000000E+00 -0.0000000E+00  0.1000000E+01
  0.8874678E-01  0.5447336E-01  0.4982014E-01  -0.0000000E+00 -0.0000000E+00  0.1000000E+01
 -0.8874678E-01  0.5447336E-01  0.4982014E-01  -0.0000000E+00 -0.0000000E+00  0.1000000E+01
           4
 -0.1004465E+00  0.5447336E-01  0.1638704E-01  -0.9438746E+00 -0.0000000E+00  0.3303039E+00
 -0.1004465E+00 -0.5447336E-01  0.1638704E-01  -0.9438746E+00 -0.0000000E+00  0.3303039E+00
 -0.8874678E-01 -0.5447336E-01  0.4982014E-01  -0.9438746E+00 -0.0000000E+00  0.3303039E+00
 -0.8874678E-01  0.5447336E-01  0.4982014E-01  -0.9438746E+00 -0.0000000E+00  0.3303039E+00
 BRILLOUIN-ZONE-CONVCELL_END
 ATOMS
   19    0.0000000000    4.5378251910    0.0000000000    0.0000000000    0.0005344800    0.0000000000
   19    2.6427998810    0.0312969610    0.0000000000    0.0000000000   -0.0007526200    0.0000000000
   12   -0.8867597870    0.0343780790    5.0180506310    0.0000000000    0.0001744900    0.0000000000
   12   -0.8867597870    3.0520546910    5.0180506310    0.0000000000   -0.0005847400    0.0000000000
   12   -0.8867597870    6.1076689030    5.0180506310    0.0000000000    0.0004758700    0.0000000000
   12    1.7560400950    7.6665815500    5.0180506310    0.0000000000   -0.0002936700    0.0000000000
   12    1.7560400950    1.5522686550    5.0180506310    0.0000000000    0.0004060800    0.0000000000
   26    1.7560400950    4.5160160740    5.0180506310    0.0000000000   -0.0008640900    0.0000000000
   14    0.0474749650    1.5152789820    2.2199882550    0.0002039800    0.0003754800    0.0003029300
   14    3.4646051180    1.5152789820    7.8161131580   -0.0002039800    0.0003754800   -0.0003029300
   14    3.5672188460    7.6608078360    7.7556652950    0.0000052400   -0.0005447300   -0.0004129000
   14   -0.0551386570    7.6608078360    2.2804359680   -0.0000052400   -0.0005447300    0.0004129000
   14    2.5867105550    6.1283526540    2.2644634580   -0.0000048200   -0.0003803900    0.0002406600
   14    0.9253695820    6.1283526540    7.7716381050    0.0000048200   -0.0003803900   -0.0002406600
   13    0.8168479180    3.0381474110    7.7947545700    0.0001319400    0.0008086900   -0.0000164200
   13    2.6952321130    3.0381474110    2.2413466930   -0.0001319400    0.0008086900    0.0000164200
    8   -0.0060220050    1.4979464020    3.8512914260    0.0000285800   -0.0007956300    0.0008830100
    8    3.5181020890    1.4979464020    6.1848095360   -0.0000285800   -0.0007956300   -0.0008830100
    8    3.5366686450    7.6474462240    6.1378186080   -0.0000858700    0.0006456800   -0.0004013600
    8   -0.0245884560    7.6474462240    3.8982826550    0.0000858700    0.0006456800    0.0004013600
    8    2.6340155760    6.1871444520    3.8871886510   -0.0002305800    0.0000461700    0.0002001300
    8    0.8780646670    6.1871444520    6.1489123100    0.0002305800    0.0000461700   -0.0002001300
    8    0.8272445390    3.0103422550    6.0608922820    0.0005803100    0.0000745700   -0.0001397500
    8    2.6848356510    3.0103422550    3.9752089810   -0.0005803100    0.0000745700    0.0001397500
    8    1.5283795140    1.8559443740    1.6431005270    0.0004354300   -0.0002506200   -0.0000398600
    8    1.9837007030    1.8559443740    8.3930005850   -0.0004354300   -0.0002506200    0.0000398600
    8    4.9567630230    9.1558297650    1.6633629400    0.0000233000   -0.0002439500    0.0005554300
    8   -1.4446828600    9.1558297650    8.3727384740   -0.0000233000   -0.0002439500   -0.0005554300
    8    2.1224158230    7.1314888450    8.3606791750    0.0000727700   -0.0005862700   -0.0002302900
    8    1.3896643660    7.1314888450    1.6754220880   -0.0000727700   -0.0005862700    0.0002302900
    8    4.0290783630    6.7084886760    1.6619299410   -0.0003073900    0.0000393100   -0.0005014500
    8   -0.5169982270    6.7084886760    8.3741716230    0.0003073900    0.0000393100    0.0005014500
    8    2.3206857620    4.6635995230    1.6344985030   -0.0000879400    0.0001350600   -0.0003802100
    8    1.1913944280    4.6635995230    8.4016027590    0.0000879400    0.0001350600    0.0003802100
    8   -0.7433245430    2.5492815310    8.4537280070   -0.0002650600    0.0002767800    0.0002975900
    8    4.2554046540    2.5492815310    1.5823732550    0.0002650600    0.0002767800   -0.0002975900
    8   -0.0620535650    4.6207413960    3.9288012540   -0.0000487600    0.0001752000    0.0003661500
    8    3.5741336490    4.6207413960    6.1072997080    0.0000487600    0.0001752000   -0.0003661500
    8    2.6440764290    9.1694986860    3.9838379910   -0.0000146000    0.0003093100    0.0002224600
    8    0.8680037600    9.1694986860    6.0522632720    0.0000146000    0.0003093100   -0.0002224600
    1    0.0613068240    4.5447517410    2.9735978060   -0.0008418700    0.0000900800    0.0000700400
    1    3.4507733230    4.5447517410    7.0625034570    0.0008418700    0.0000900800   -0.0000700400
    1    2.6167861020    0.1331022830    3.0286952470    0.0000094200    0.0002773600    0.0002111400
    1    0.8952941410    0.1331022830    7.0074057140   -0.0000094200    0.0002773600   -0.0002111400
   19   -1.7735195730    4.5378251910   10.0361012630    0.0000000000    0.0005344800    0.0000000000
   19    0.8692803080    0.0312969610   10.0361012630    0.0000000000   -0.0007526200    0.0000000000
   19    5.2855997630    4.5378251910    0.0000000000    0.0000000000    0.0005344800    0.0000000000
   12    4.3988399760    0.0343780790    5.0180506310    0.0000000000    0.0001744900    0.0000000000
   12    4.3988399760    3.0520546910    5.0180506310    0.0000000000   -0.0005847400    0.0000000000
   12    4.3988399760    6.1076689030    5.0180506310    0.0000000000    0.0004758700    0.0000000000
   19    3.5120801900    4.5378251910   10.0361012630    0.0000000000    0.0005344800    0.0000000000
 FRAMES
1      0.0000000000    0.0000000000    0.0000000000      5.2855997630    0.0000000000    0.0000000000
1      0.0000000000    0.0000000000    0.0000000000      0.0000000000    9.1787981240    0.0000000000
1      0.0000000000    0.0000000000    0.0000000000     -1.7735195730    0.0000000000   10.0361012630
1     -1.7735195730    0.0000000000   10.0361012630      3.5120801900    0.0000000000   10.0361012630
1     -1.7735195730    0.0000000000   10.0361012630     -1.7735195730    9.1787981240   10.0361012630
1      0.0000000000    9.1787981240    0.0000000000      5.2855997630    9.1787981240    0.0000000000
1      0.0000000000    9.1787981240    0.0000000000     -1.7735195730    9.1787981240   10.0361012630
1     -1.7735195730    9.1787981240   10.0361012630      3.5120801900    9.1787981240   10.0361012630
1      5.2855997630    0.0000000000    0.0000000000      5.2855997630    9.1787981240    0.0000000000
1      5.2855997630    0.0000000000    0.0000000000      3.5120801900    0.0000000000   10.0361012630
1      3.5120801900    0.0000000000   10.0361012630      3.5120801900    9.1787981240   10.0361012630
1      5.2855997630    9.1787981240    0.0000000000      3.5120801900    9.1787981240   10.0361012630
