 INFO
nunit      1    1    1
unit   cell
celltype   primcell
shape   parapipedal
 END_INFO
 DIM-GROUP
           3           1
 PRIMVEC
    5.2989900630    0.0000000000    0.0000000000
    0.0000000000    9.1953692500    0.0000000000
   -1.8126838200    0.0000000000   10.0463340640
 CONVVEC
    5.2989900630    0.0000000000    0.0000000000
    0.0000000000    9.1953692500    0.0000000000
   -1.8126838200    0.0000000000   10.0463340640
 PRIMCOORD
          40           1
 19      0.0000000000     4.4875071690     0.0000000000     0.0000000000    -0.0001605200     0.0000000000
 19      2.6494950310     0.0886164240     0.0000000000     0.0000000000     0.0000652400     0.0000000000
 12     -0.9063419100     0.0352851000     5.0231670320     0.0000000000    -0.0009032700     0.0000000000
 12     -0.9063419100     3.0543120640     5.0231670320     0.0000000000    -0.0005033200     0.0000000000
 12     -0.9063419100     6.1266308620     5.0231670320     0.0000000000     0.0009412200     0.0000000000
 12      1.7431531220     4.5467022430     5.0231670320     0.0000000000     0.0007772400     0.0000000000
 12      1.7431531220     7.6607496140     5.0231670320     0.0000000000    -0.0006715700     0.0000000000
 12      1.7431531220     1.5971786400     5.0231670320     0.0000000000     0.0003724500     0.0000000000
 14      0.0327827460     1.5166888860     2.2302670720    -0.0001535300    -0.0000768300     0.0000973600
 14      3.4535234770     1.5166888860     7.8160666910     0.0001535300    -0.0000768300    -0.0000973600
 14      3.5477910550     7.6680771140     7.7590597440    -0.0002421100    -0.0001937800    -0.0003746700
 14     -0.0614847100     7.6680771140     2.2872741700     0.0002421100    -0.0001937800     0.0003746700
 14      2.5843820270     6.1250229790     2.2631937260     0.0002810000     0.0001776500     0.0002488100
 14      0.9019242430     6.1250229790     7.7831401880    -0.0002810000     0.0001776500    -0.0002488100
 13      0.7998453410     3.0452678810     7.7975862440     0.0000504400     0.0001799700    -0.0001783000
 13      2.6864609570     3.0452678810     2.2487475190    -0.0000504400     0.0001799700     0.0001783000
  8     -0.0202309710     1.4971312670     3.8803400840     0.0001867000     0.0000322400    -0.0003809100
  8      3.5065370030     1.4971312670     6.1659942720    -0.0001867000     0.0000322400     0.0003809100
  8      3.5285934850     7.6560139220     6.1262984200    -0.0001217700     0.0001112700     0.0001519100
  8     -0.0422871870     7.6560139220     3.9200353430     0.0001217700     0.0001112700    -0.0001519100
  8      2.6089024390     6.1533042640     3.9046462340    -0.0000453200    -0.0000706500    -0.0002907200
  8      0.8774036510     6.1533042640     6.1416878310     0.0000453200    -0.0000706500     0.0002907200
  8      0.8137323150     3.0762103770     6.0509442100     0.0001638100    -0.0002560700     0.0001685600
  8      2.6725738740     3.0762103770     3.9953901560    -0.0001638100    -0.0002560700    -0.0001685600
  8      1.4865189780     1.9158138670     1.6543308740    -0.0001135700     0.0003676700     0.0002530600
  8      1.9997872130     1.9158138670     8.3920034820     0.0001135700     0.0003676700    -0.0002530600
  8      5.0112574500     9.1652254860     1.6871645320    -0.0005070400     0.0000053800    -0.0003464100
  8     -1.5249512000     9.1652254860     8.3591693820     0.0005070400     0.0000053800     0.0003464100
  8      2.1190964070     7.1036436210     8.3458735640    -0.0000776600    -0.0000278300    -0.0002163700
  8      1.3672100230     7.1036436210     1.7004603500     0.0000776600    -0.0000278300     0.0002163700
  8      4.0097317340     6.7521084290     1.6914880210     0.0002210300     0.0001188500     0.0001332300
  8     -0.5234254910     6.7521084290     8.3548460430    -0.0002210300     0.0001188500    -0.0001332300
  8      2.3763434780     4.6681800980     1.6215923240    -0.0002530400    -0.0000828400     0.0002754700
  8      1.1099628970     4.6681800980     8.4247418910     0.0002530400    -0.0000828400    -0.0002754700
  8     -0.7299421850     2.4969902560     8.4490834910     0.0001659600    -0.0002136800    -0.0002462400
  8      4.2162484540     2.4969902560     1.5972508750    -0.0001659600    -0.0002136800     0.0002462400
  9     -0.0283186500     4.6571671610     4.0034686480    -0.0002079500    -0.0005627400    -0.0002757200
  9      3.5146249730     4.6571671610     6.0428654170     0.0002079500    -0.0005627400     0.0002757200
  9      2.6303661610     9.1781238760     4.0491016200    -0.0003344100     0.0005326500    -0.0003116800
  9      0.8559400280     9.1781238760     5.9972327460     0.0003344100     0.0005326500     0.0003116800
 CONVCOORD
          40           1
 19      0.0000000000     4.4875071690     0.0000000000
 19      2.6494950310     0.0886164240     0.0000000000
 12     -0.9063419100     0.0352851000     5.0231670320
 12     -0.9063419100     3.0543120640     5.0231670320
 12     -0.9063419100     6.1266308620     5.0231670320
 12      1.7431531220     4.5467022430     5.0231670320
 12      1.7431531220     7.6607496140     5.0231670320
 12      1.7431531220     1.5971786400     5.0231670320
 14      0.0327827460     1.5166888860     2.2302670720
 14      3.4535234770     1.5166888860     7.8160666910
 14      3.5477910550     7.6680771140     7.7590597440
 14     -0.0614847100     7.6680771140     2.2872741700
 14      2.5843820270     6.1250229790     2.2631937260
 14      0.9019242430     6.1250229790     7.7831401880
 13      0.7998453410     3.0452678810     7.7975862440
 13      2.6864609570     3.0452678810     2.2487475190
  8     -0.0202309710     1.4971312670     3.8803400840
  8      3.5065370030     1.4971312670     6.1659942720
  8      3.5285934850     7.6560139220     6.1262984200
  8     -0.0422871870     7.6560139220     3.9200353430
  8      2.6089024390     6.1533042640     3.9046462340
  8      0.8774036510     6.1533042640     6.1416878310
  8      0.8137323150     3.0762103770     6.0509442100
  8      2.6725738740     3.0762103770     3.9953901560
  8      1.4865189780     1.9158138670     1.6543308740
  8      1.9997872130     1.9158138670     8.3920034820
  8     -0.2877326130     9.1652254860     1.6871645320
  8     -1.5249512000     9.1652254860     8.3591693820
  8      2.1190964070     7.1036436210     8.3458735640
  8      1.3672100230     7.1036436210     1.7004603500
  8      4.0097317340     6.7521084290     1.6914880210
  8     -0.5234254910     6.7521084290     8.3548460430
  8      2.3763434780     4.6681800980     1.6215923240
  8      1.1099628970     4.6681800980     8.4247418910
  8     -0.7299421850     2.4969902560     8.4490834910
  8      4.2162484540     2.4969902560     1.5972508750
  9     -0.0283186500     4.6571671610     4.0034686480
  9      3.5146249730     4.6571671610     6.0428654170
  9      2.6303661610     9.1781238760     4.0491016200
  9      0.8559400280     9.1781238760     5.9972327460
 RECIP-PRIMVEC
    0.1887152057   -0.0000000000    0.0340503310

    0.0000000000    0.1087503909   -0.0000000000

    0.0000000000    0.0000000000    0.0995387963

 RECIP-CONVVEC
    0.1887152057   -0.0000000000    0.0340503310

    0.0000000000    0.1087503909   -0.0000000000

    0.0000000000    0.0000000000    0.0995387963

 WIGNER-SEITZ-PRIMCELL
           4
 -0.2649495E+01  0.4597685E+01 -0.4708646E+01  -0.3278435E+00 -0.1009766E-15 -0.9447320E+00
 -0.8368112E+00  0.4597685E+01 -0.5337688E+01  -0.3278435E+00 -0.1009766E-15 -0.9447320E+00
 -0.8368112E+00 -0.4597685E+01 -0.5337688E+01  -0.3278435E+00 -0.1009766E-15 -0.9447320E+00
 -0.2649495E+01 -0.4597685E+01 -0.4708646E+01  -0.3278435E+00 -0.1009766E-15 -0.9447320E+00
           4
 -0.2649495E+01  0.4597685E+01 -0.4708646E+01  -0.1000000E+01  0.4829488E-16  0.4554862E-32
 -0.2649495E+01 -0.4597685E+01 -0.4708646E+01  -0.1000000E+01  0.4829488E-16  0.4554862E-32
 -0.2649495E+01 -0.4597685E+01  0.4708646E+01  -0.1000000E+01  0.4829488E-16  0.4554862E-32
 -0.2649495E+01  0.4597685E+01  0.4708646E+01  -0.1000000E+01  0.4829488E-16  0.4554862E-32
           6
  0.2649495E+01 -0.4597685E+01  0.4708646E+01  -0.0000000E+00 -0.1000000E+01  0.1065828E-14
  0.8368112E+00 -0.4597685E+01  0.5337688E+01  -0.0000000E+00 -0.1000000E+01  0.1065828E-14
 -0.2649495E+01 -0.4597685E+01  0.4708646E+01  -0.0000000E+00 -0.1000000E+01  0.1065828E-14
 -0.2649495E+01 -0.4597685E+01 -0.4708646E+01  -0.0000000E+00 -0.1000000E+01  0.1065828E-14
 -0.8368112E+00 -0.4597685E+01 -0.5337688E+01  -0.0000000E+00 -0.1000000E+01  0.1065828E-14
  0.2649495E+01 -0.4597685E+01 -0.4708646E+01  -0.0000000E+00 -0.1000000E+01  0.1065828E-14
           4
  0.2649495E+01 -0.4597685E+01 -0.4708646E+01   0.1775651E+00 -0.2181216E-15 -0.9841091E+00
 -0.8368112E+00 -0.4597685E+01 -0.5337688E+01   0.1775651E+00 -0.2181216E-15 -0.9841091E+00
 -0.8368112E+00  0.4597685E+01 -0.5337688E+01   0.1775651E+00 -0.2181216E-15 -0.9841091E+00
  0.2649495E+01  0.4597685E+01 -0.4708646E+01   0.1775651E+00 -0.2181216E-15 -0.9841091E+00
           4
 -0.2649495E+01  0.4597685E+01  0.4708646E+01  -0.1775651E+00 -0.0000000E+00  0.9841091E+00
 -0.2649495E+01 -0.4597685E+01  0.4708646E+01  -0.1775651E+00 -0.0000000E+00  0.9841091E+00
  0.8368112E+00 -0.4597685E+01  0.5337688E+01  -0.1775651E+00 -0.0000000E+00  0.9841091E+00
  0.8368112E+00  0.4597685E+01  0.5337688E+01  -0.1775651E+00 -0.0000000E+00  0.9841091E+00
           6
  0.2649495E+01  0.4597685E+01 -0.4708646E+01   0.0000000E+00  0.1000000E+01  0.1065828E-14
 -0.8368112E+00  0.4597685E+01 -0.5337688E+01   0.0000000E+00  0.1000000E+01  0.1065828E-14
 -0.2649495E+01  0.4597685E+01 -0.4708646E+01   0.0000000E+00  0.1000000E+01  0.1065828E-14
 -0.2649495E+01  0.4597685E+01  0.4708646E+01   0.0000000E+00  0.1000000E+01  0.1065828E-14
  0.8368112E+00  0.4597685E+01  0.5337688E+01   0.0000000E+00  0.1000000E+01  0.1065828E-14
  0.2649495E+01  0.4597685E+01  0.4708646E+01   0.0000000E+00  0.1000000E+01  0.1065828E-14
           4
  0.2649495E+01  0.4597685E+01  0.4708646E+01   0.1000000E+01 -0.4829488E-16  0.0000000E+00
  0.2649495E+01 -0.4597685E+01  0.4708646E+01   0.1000000E+01 -0.4829488E-16  0.0000000E+00
  0.2649495E+01 -0.4597685E+01 -0.4708646E+01   0.1000000E+01 -0.4829488E-16  0.0000000E+00
  0.2649495E+01  0.4597685E+01 -0.4708646E+01   0.1000000E+01 -0.4829488E-16  0.0000000E+00
           4
  0.8368112E+00 -0.4597685E+01  0.5337688E+01   0.3278435E+00  0.3334111E-16  0.9447320E+00
  0.2649495E+01 -0.4597685E+01  0.4708646E+01   0.3278435E+00  0.3334111E-16  0.9447320E+00
  0.2649495E+01  0.4597685E+01  0.4708646E+01   0.3278435E+00  0.3334111E-16  0.9447320E+00
  0.8368112E+00  0.4597685E+01  0.5337688E+01   0.3278435E+00  0.3334111E-16  0.9447320E+00
 WIGNER-SEITZ-PRIMCELL_END
 WIGNER-SEITZ-CONVCELL
           4
 -0.2649495E+01  0.4597685E+01 -0.4708646E+01  -0.3278435E+00 -0.1009766E-15 -0.9447320E+00
 -0.8368112E+00  0.4597685E+01 -0.5337688E+01  -0.3278435E+00 -0.1009766E-15 -0.9447320E+00
 -0.8368112E+00 -0.4597685E+01 -0.5337688E+01  -0.3278435E+00 -0.1009766E-15 -0.9447320E+00
 -0.2649495E+01 -0.4597685E+01 -0.4708646E+01  -0.3278435E+00 -0.1009766E-15 -0.9447320E+00
           4
 -0.2649495E+01  0.4597685E+01 -0.4708646E+01  -0.1000000E+01  0.4829488E-16  0.4554862E-32
 -0.2649495E+01 -0.4597685E+01 -0.4708646E+01  -0.1000000E+01  0.4829488E-16  0.4554862E-32
 -0.2649495E+01 -0.4597685E+01  0.4708646E+01  -0.1000000E+01  0.4829488E-16  0.4554862E-32
 -0.2649495E+01  0.4597685E+01  0.4708646E+01  -0.1000000E+01  0.4829488E-16  0.4554862E-32
           6
  0.2649495E+01 -0.4597685E+01  0.4708646E+01  -0.0000000E+00 -0.1000000E+01  0.1065828E-14
  0.8368112E+00 -0.4597685E+01  0.5337688E+01  -0.0000000E+00 -0.1000000E+01  0.1065828E-14
 -0.2649495E+01 -0.4597685E+01  0.4708646E+01  -0.0000000E+00 -0.1000000E+01  0.1065828E-14
 -0.2649495E+01 -0.4597685E+01 -0.4708646E+01  -0.0000000E+00 -0.1000000E+01  0.1065828E-14
 -0.8368112E+00 -0.4597685E+01 -0.5337688E+01  -0.0000000E+00 -0.1000000E+01  0.1065828E-14
  0.2649495E+01 -0.4597685E+01 -0.4708646E+01  -0.0000000E+00 -0.1000000E+01  0.1065828E-14
           4
  0.2649495E+01 -0.4597685E+01 -0.4708646E+01   0.1775651E+00 -0.2181216E-15 -0.9841091E+00
 -0.8368112E+00 -0.4597685E+01 -0.5337688E+01   0.1775651E+00 -0.2181216E-15 -0.9841091E+00
 -0.8368112E+00  0.4597685E+01 -0.5337688E+01   0.1775651E+00 -0.2181216E-15 -0.9841091E+00
  0.2649495E+01  0.4597685E+01 -0.4708646E+01   0.1775651E+00 -0.2181216E-15 -0.9841091E+00
           4
 -0.2649495E+01  0.4597685E+01  0.4708646E+01  -0.1775651E+00 -0.0000000E+00  0.9841091E+00
 -0.2649495E+01 -0.4597685E+01  0.4708646E+01  -0.1775651E+00 -0.0000000E+00  0.9841091E+00
  0.8368112E+00 -0.4597685E+01  0.5337688E+01  -0.1775651E+00 -0.0000000E+00  0.9841091E+00
  0.8368112E+00  0.4597685E+01  0.5337688E+01  -0.1775651E+00 -0.0000000E+00  0.9841091E+00
           6
  0.2649495E+01  0.4597685E+01 -0.4708646E+01   0.0000000E+00  0.1000000E+01  0.1065828E-14
 -0.8368112E+00  0.4597685E+01 -0.5337688E+01   0.0000000E+00  0.1000000E+01  0.1065828E-14
 -0.2649495E+01  0.4597685E+01 -0.4708646E+01   0.0000000E+00  0.1000000E+01  0.1065828E-14
 -0.2649495E+01  0.4597685E+01  0.4708646E+01   0.0000000E+00  0.1000000E+01  0.1065828E-14
  0.8368112E+00  0.4597685E+01  0.5337688E+01   0.0000000E+00  0.1000000E+01  0.1065828E-14
  0.2649495E+01  0.4597685E+01  0.4708646E+01   0.0000000E+00  0.1000000E+01  0.1065828E-14
           4
  0.2649495E+01  0.4597685E+01  0.4708646E+01   0.1000000E+01 -0.4829488E-16  0.0000000E+00
  0.2649495E+01 -0.4597685E+01  0.4708646E+01   0.1000000E+01 -0.4829488E-16  0.0000000E+00
  0.2649495E+01 -0.4597685E+01 -0.4708646E+01   0.1000000E+01 -0.4829488E-16  0.0000000E+00
  0.2649495E+01  0.4597685E+01 -0.4708646E+01   0.1000000E+01 -0.4829488E-16  0.0000000E+00
           4
  0.8368112E+00 -0.4597685E+01  0.5337688E+01   0.3278435E+00  0.3334111E-16  0.9447320E+00
  0.2649495E+01 -0.4597685E+01  0.4708646E+01   0.3278435E+00  0.3334111E-16  0.9447320E+00
  0.2649495E+01  0.4597685E+01  0.4708646E+01   0.3278435E+00  0.3334111E-16  0.9447320E+00
  0.8368112E+00  0.4597685E+01  0.5337688E+01   0.3278435E+00  0.3334111E-16  0.9447320E+00
 WIGNER-SEITZ-CONVCELL_END
 BRILLOUIN-ZONE-PRIMCELL
           4
  0.1002657E+00  0.5437520E-01 -0.1571907E-01   0.9447320E+00  0.5532186E-16 -0.3278435E+00
  0.1002657E+00 -0.5437520E-01 -0.1571907E-01   0.9447320E+00  0.5532186E-16 -0.3278435E+00
  0.8844948E-01 -0.5437520E-01 -0.4976940E-01   0.9447320E+00  0.5532186E-16 -0.3278435E+00
  0.8844948E-01  0.5437520E-01 -0.4976940E-01   0.9447320E+00  0.5532186E-16 -0.3278435E+00
           4
 -0.8844948E-01  0.5437520E-01 -0.4976940E-01   0.0000000E+00 -0.5426985E-16 -0.1000000E+01
  0.8844948E-01  0.5437520E-01 -0.4976940E-01   0.0000000E+00 -0.5426985E-16 -0.1000000E+01
  0.8844948E-01 -0.5437520E-01 -0.4976940E-01   0.0000000E+00 -0.5426985E-16 -0.1000000E+01
 -0.8844948E-01 -0.5437520E-01 -0.4976940E-01   0.0000000E+00 -0.5426985E-16 -0.1000000E+01
           6
  0.8844948E-01 -0.5437520E-01  0.4976940E-01   0.0000000E+00 -0.1000000E+01  0.2879941E-15
 -0.8844948E-01 -0.5437520E-01  0.4976940E-01   0.0000000E+00 -0.1000000E+01  0.2879941E-15
 -0.1002657E+00 -0.5437520E-01  0.1571907E-01   0.0000000E+00 -0.1000000E+01  0.2879941E-15
 -0.8844948E-01 -0.5437520E-01 -0.4976940E-01   0.0000000E+00 -0.1000000E+01  0.2879941E-15
  0.8844948E-01 -0.5437520E-01 -0.4976940E-01   0.0000000E+00 -0.1000000E+01  0.2879941E-15
  0.1002657E+00 -0.5437520E-01 -0.1571907E-01   0.0000000E+00 -0.1000000E+01  0.2879941E-15
           4
  0.8844948E-01  0.5437520E-01  0.4976940E-01   0.9841091E+00 -0.3370857E-15  0.1775651E+00
  0.8844948E-01 -0.5437520E-01  0.4976940E-01   0.9841091E+00 -0.3370857E-15  0.1775651E+00
  0.1002657E+00 -0.5437520E-01 -0.1571907E-01   0.9841091E+00 -0.3370857E-15  0.1775651E+00
  0.1002657E+00  0.5437520E-01 -0.1571907E-01   0.9841091E+00 -0.3370857E-15  0.1775651E+00
           4
 -0.8844948E-01  0.5437520E-01 -0.4976940E-01  -0.9841091E+00 -0.1498159E-15 -0.1775651E+00
 -0.8844948E-01 -0.5437520E-01 -0.4976940E-01  -0.9841091E+00 -0.1498159E-15 -0.1775651E+00
 -0.1002657E+00 -0.5437520E-01  0.1571907E-01  -0.9841091E+00 -0.1498159E-15 -0.1775651E+00
 -0.1002657E+00  0.5437520E-01  0.1571907E-01  -0.9841091E+00 -0.1498159E-15 -0.1775651E+00
           6
  0.1002657E+00  0.5437520E-01 -0.1571907E-01  -0.0000000E+00  0.1000000E+01  0.2879941E-15
  0.8844948E-01  0.5437520E-01 -0.4976940E-01  -0.0000000E+00  0.1000000E+01  0.2879941E-15
 -0.8844948E-01  0.5437520E-01 -0.4976940E-01  -0.0000000E+00  0.1000000E+01  0.2879941E-15
 -0.1002657E+00  0.5437520E-01  0.1571907E-01  -0.0000000E+00  0.1000000E+01  0.2879941E-15
 -0.8844948E-01  0.5437520E-01  0.4976940E-01  -0.0000000E+00  0.1000000E+01  0.2879941E-15
  0.8844948E-01  0.5437520E-01  0.4976940E-01  -0.0000000E+00  0.1000000E+01  0.2879941E-15
           4
  0.8844948E-01 -0.5437520E-01  0.4976940E-01  -0.0000000E+00 -0.0000000E+00  0.1000000E+01
  0.8844948E-01  0.5437520E-01  0.4976940E-01  -0.0000000E+00 -0.0000000E+00  0.1000000E+01
 -0.8844948E-01  0.5437520E-01  0.4976940E-01  -0.0000000E+00 -0.0000000E+00  0.1000000E+01
 -0.8844948E-01 -0.5437520E-01  0.4976940E-01  -0.0000000E+00 -0.0000000E+00  0.1000000E+01
           4
 -0.1002657E+00  0.5437520E-01  0.1571907E-01  -0.9447320E+00 -0.1383046E-15  0.3278435E+00
 -0.1002657E+00 -0.5437520E-01  0.1571907E-01  -0.9447320E+00 -0.1383046E-15  0.3278435E+00
 -0.8844948E-01 -0.5437520E-01  0.4976940E-01  -0.9447320E+00 -0.1383046E-15  0.3278435E+00
 -0.8844948E-01  0.5437520E-01  0.4976940E-01  -0.9447320E+00 -0.1383046E-15  0.3278435E+00
 BRILLOUIN-ZONE-PRIMCELL_END
 BRILLOUIN-ZONE-CONVCELL
           4
  0.1002657E+00  0.5437520E-01 -0.1571907E-01   0.9447320E+00  0.5532186E-16 -0.3278435E+00
  0.1002657E+00 -0.5437520E-01 -0.1571907E-01   0.9447320E+00  0.5532186E-16 -0.3278435E+00
  0.8844948E-01 -0.5437520E-01 -0.4976940E-01   0.9447320E+00  0.5532186E-16 -0.3278435E+00
  0.8844948E-01  0.5437520E-01 -0.4976940E-01   0.9447320E+00  0.5532186E-16 -0.3278435E+00
           4
 -0.8844948E-01  0.5437520E-01 -0.4976940E-01   0.0000000E+00 -0.5426985E-16 -0.1000000E+01
  0.8844948E-01  0.5437520E-01 -0.4976940E-01   0.0000000E+00 -0.5426985E-16 -0.1000000E+01
  0.8844948E-01 -0.5437520E-01 -0.4976940E-01   0.0000000E+00 -0.5426985E-16 -0.1000000E+01
 -0.8844948E-01 -0.5437520E-01 -0.4976940E-01   0.0000000E+00 -0.5426985E-16 -0.1000000E+01
           6
  0.8844948E-01 -0.5437520E-01  0.4976940E-01   0.0000000E+00 -0.1000000E+01  0.2879941E-15
 -0.8844948E-01 -0.5437520E-01  0.4976940E-01   0.0000000E+00 -0.1000000E+01  0.2879941E-15
 -0.1002657E+00 -0.5437520E-01  0.1571907E-01   0.0000000E+00 -0.1000000E+01  0.2879941E-15
 -0.8844948E-01 -0.5437520E-01 -0.4976940E-01   0.0000000E+00 -0.1000000E+01  0.2879941E-15
  0.8844948E-01 -0.5437520E-01 -0.4976940E-01   0.0000000E+00 -0.1000000E+01  0.2879941E-15
  0.1002657E+00 -0.5437520E-01 -0.1571907E-01   0.0000000E+00 -0.1000000E+01  0.2879941E-15
           4
  0.8844948E-01  0.5437520E-01  0.4976940E-01   0.9841091E+00 -0.3370857E-15  0.1775651E+00
  0.8844948E-01 -0.5437520E-01  0.4976940E-01   0.9841091E+00 -0.3370857E-15  0.1775651E+00
  0.1002657E+00 -0.5437520E-01 -0.1571907E-01   0.9841091E+00 -0.3370857E-15  0.1775651E+00
  0.1002657E+00  0.5437520E-01 -0.1571907E-01   0.9841091E+00 -0.3370857E-15  0.1775651E+00
           4
 -0.8844948E-01  0.5437520E-01 -0.4976940E-01  -0.9841091E+00 -0.1498159E-15 -0.1775651E+00
 -0.8844948E-01 -0.5437520E-01 -0.4976940E-01  -0.9841091E+00 -0.1498159E-15 -0.1775651E+00
 -0.1002657E+00 -0.5437520E-01  0.1571907E-01  -0.9841091E+00 -0.1498159E-15 -0.1775651E+00
 -0.1002657E+00  0.5437520E-01  0.1571907E-01  -0.9841091E+00 -0.1498159E-15 -0.1775651E+00
           6
  0.1002657E+00  0.5437520E-01 -0.1571907E-01  -0.0000000E+00  0.1000000E+01  0.2879941E-15
  0.8844948E-01  0.5437520E-01 -0.4976940E-01  -0.0000000E+00  0.1000000E+01  0.2879941E-15
 -0.8844948E-01  0.5437520E-01 -0.4976940E-01  -0.0000000E+00  0.1000000E+01  0.2879941E-15
 -0.1002657E+00  0.5437520E-01  0.1571907E-01  -0.0000000E+00  0.1000000E+01  0.2879941E-15
 -0.8844948E-01  0.5437520E-01  0.4976940E-01  -0.0000000E+00  0.1000000E+01  0.2879941E-15
  0.8844948E-01  0.5437520E-01  0.4976940E-01  -0.0000000E+00  0.1000000E+01  0.2879941E-15
           4
  0.8844948E-01 -0.5437520E-01  0.4976940E-01  -0.0000000E+00 -0.0000000E+00  0.1000000E+01
  0.8844948E-01  0.5437520E-01  0.4976940E-01  -0.0000000E+00 -0.0000000E+00  0.1000000E+01
 -0.8844948E-01  0.5437520E-01  0.4976940E-01  -0.0000000E+00 -0.0000000E+00  0.1000000E+01
 -0.8844948E-01 -0.5437520E-01  0.4976940E-01  -0.0000000E+00 -0.0000000E+00  0.1000000E+01
           4
 -0.1002657E+00  0.5437520E-01  0.1571907E-01  -0.9447320E+00 -0.1383046E-15  0.3278435E+00
 -0.1002657E+00 -0.5437520E-01  0.1571907E-01  -0.9447320E+00 -0.1383046E-15  0.3278435E+00
 -0.8844948E-01 -0.5437520E-01  0.4976940E-01  -0.9447320E+00 -0.1383046E-15  0.3278435E+00
 -0.8844948E-01  0.5437520E-01  0.4976940E-01  -0.9447320E+00 -0.1383046E-15  0.3278435E+00
 BRILLOUIN-ZONE-CONVCELL_END
 ATOMS
   19    0.0000000000    4.4875071690    0.0000000000    0.0000000000   -0.0001605200    0.0000000000
   19    2.6494950310    0.0886164240    0.0000000000    0.0000000000    0.0000652400    0.0000000000
   12   -0.9063419100    0.0352851000    5.0231670320    0.0000000000   -0.0009032700    0.0000000000
   12   -0.9063419100    3.0543120640    5.0231670320    0.0000000000   -0.0005033200    0.0000000000
   12   -0.9063419100    6.1266308620    5.0231670320    0.0000000000    0.0009412200    0.0000000000
   12    1.7431531220    4.5467022430    5.0231670320    0.0000000000    0.0007772400    0.0000000000
   12    1.7431531220    7.6607496140    5.0231670320    0.0000000000   -0.0006715700    0.0000000000
   12    1.7431531220    1.5971786400    5.0231670320    0.0000000000    0.0003724500    0.0000000000
   14    0.0327827460    1.5166888860    2.2302670720   -0.0001535300   -0.0000768300    0.0000973600
   14    3.4535234770    1.5166888860    7.8160666910    0.0001535300   -0.0000768300   -0.0000973600
   14    3.5477910550    7.6680771140    7.7590597440   -0.0002421100   -0.0001937800   -0.0003746700
   14   -0.0614847100    7.6680771140    2.2872741700    0.0002421100   -0.0001937800    0.0003746700
   14    2.5843820270    6.1250229790    2.2631937260    0.0002810000    0.0001776500    0.0002488100
   14    0.9019242430    6.1250229790    7.7831401880   -0.0002810000    0.0001776500   -0.0002488100
   13    0.7998453410    3.0452678810    7.7975862440    0.0000504400    0.0001799700   -0.0001783000
   13    2.6864609570    3.0452678810    2.2487475190   -0.0000504400    0.0001799700    0.0001783000
    8   -0.0202309710    1.4971312670    3.8803400840    0.0001867000    0.0000322400   -0.0003809100
    8    3.5065370030    1.4971312670    6.1659942720   -0.0001867000    0.0000322400    0.0003809100
    8    3.5285934850    7.6560139220    6.1262984200   -0.0001217700    0.0001112700    0.0001519100
    8   -0.0422871870    7.6560139220    3.9200353430    0.0001217700    0.0001112700   -0.0001519100
    8    2.6089024390    6.1533042640    3.9046462340   -0.0000453200   -0.0000706500   -0.0002907200
    8    0.8774036510    6.1533042640    6.1416878310    0.0000453200   -0.0000706500    0.0002907200
    8    0.8137323150    3.0762103770    6.0509442100    0.0001638100   -0.0002560700    0.0001685600
    8    2.6725738740    3.0762103770    3.9953901560   -0.0001638100   -0.0002560700   -0.0001685600
    8    1.4865189780    1.9158138670    1.6543308740   -0.0001135700    0.0003676700    0.0002530600
    8    1.9997872130    1.9158138670    8.3920034820    0.0001135700    0.0003676700   -0.0002530600
    8   -0.2877326130    9.1652254860    1.6871645320   -0.0005070400    0.0000053800   -0.0003464100
    8    2.1190964070    7.1036436210    8.3458735640   -0.0000776600   -0.0000278300   -0.0002163700
    8    1.3672100230    7.1036436210    1.7004603500    0.0000776600   -0.0000278300    0.0002163700
    8    4.0097317340    6.7521084290    1.6914880210    0.0002210300    0.0001188500    0.0001332300
    8   -0.5234254910    6.7521084290    8.3548460430   -0.0002210300    0.0001188500   -0.0001332300
    8    2.3763434780    4.6681800980    1.6215923240   -0.0002530400   -0.0000828400    0.0002754700
    8    1.1099628970    4.6681800980    8.4247418910    0.0002530400   -0.0000828400   -0.0002754700
    8   -0.7299421850    2.4969902560    8.4490834910    0.0001659600   -0.0002136800   -0.0002462400
    8    4.2162484540    2.4969902560    1.5972508750   -0.0001659600   -0.0002136800    0.0002462400
    9   -0.0283186500    4.6571671610    4.0034686480   -0.0002079500   -0.0005627400   -0.0002757200
    9    3.5146249730    4.6571671610    6.0428654170    0.0002079500   -0.0005627400    0.0002757200
    9    2.6303661610    9.1781238760    4.0491016200   -0.0003344100    0.0005326500   -0.0003116800
    9    0.8559400280    9.1781238760    5.9972327460    0.0003344100    0.0005326500    0.0003116800
   19   -1.8126838200    4.4875071690   10.0463340640    0.0000000000   -0.0001605200    0.0000000000
   19    0.8368112110    0.0886164240   10.0463340640    0.0000000000    0.0000652400    0.0000000000
   19    5.2989900630    4.4875071690    0.0000000000    0.0000000000   -0.0001605200    0.0000000000
   12    4.3926481530    0.0352851000    5.0231670320    0.0000000000   -0.0009032700    0.0000000000
   12    4.3926481530    3.0543120640    5.0231670320    0.0000000000   -0.0005033200    0.0000000000
   12    4.3926481530    6.1266308620    5.0231670320    0.0000000000    0.0009412200    0.0000000000
    8    3.7740388630    9.1652254860    8.3591693820    0.0005070400    0.0000053800    0.0003464100
   19    3.4863062430    4.4875071690   10.0463340640    0.0000000000   -0.0001605200    0.0000000000
 FRAMES
1      0.0000000000    0.0000000000    0.0000000000      5.2989900630    0.0000000000    0.0000000000
1      0.0000000000    0.0000000000    0.0000000000      0.0000000000    9.1953692500    0.0000000000
1      0.0000000000    0.0000000000    0.0000000000     -1.8126838200    0.0000000000   10.0463340640
1     -1.8126838200    0.0000000000   10.0463340640      3.4863062430    0.0000000000   10.0463340640
1     -1.8126838200    0.0000000000   10.0463340640     -1.8126838200    9.1953692500   10.0463340640
1      0.0000000000    9.1953692500    0.0000000000      5.2989900630    9.1953692500    0.0000000000
1      0.0000000000    9.1953692500    0.0000000000     -1.8126838200    9.1953692500   10.0463340640
1     -1.8126838200    9.1953692500   10.0463340640      3.4863062430    9.1953692500   10.0463340640
1      5.2989900630    0.0000000000    0.0000000000      5.2989900630    9.1953692500    0.0000000000
1      5.2989900630    0.0000000000    0.0000000000      3.4863062430    0.0000000000   10.0463340640
1      3.4863062430    0.0000000000   10.0463340640      3.4863062430    9.1953692500   10.0463340640
1      5.2989900630    9.1953692500    0.0000000000      3.4863062430    9.1953692500   10.0463340640
