 INFO
nunit      1    1    1
unit   cell
celltype   primcell
shape   parapipedal
 END_INFO
 DIM-GROUP
           3           1
 PRIMVEC
    5.2753721270    0.0000000000    0.0000000000
    0.0000000000    9.1690937620    0.0000000000
   -1.7624515270    0.0000000000   10.0412547220
 CONVVEC
    5.2753721270    0.0000000000    0.0000000000
    0.0000000000    9.1690937620    0.0000000000
   -1.7624515270    0.0000000000   10.0412547220
 PRIMCOORD
          44           1
 19      0.0000000000     4.5450059840     0.0000000000     0.0000000000     0.0005044900     0.0000000000
 19      2.6376859600     0.0255048940     0.0000000000     0.0000000000    -0.0004422600     0.0000000000
 12     -0.8812253790     0.0306294760     5.0206281280     0.0000000000     0.0001655000     0.0000000000
 12     -0.8812253790     3.0650353020     5.0206281280     0.0000000000    -0.0002184100     0.0000000000
 12     -0.8812253790     6.0746553250     5.0206281280     0.0000000000    -0.0001281600     0.0000000000
 12      1.7564605820     7.6392329430     5.0206281280     0.0000000000     0.0003577500     0.0000000000
 12      1.7564605820     1.5926468170     5.0206281280     0.0000000000    -0.0000920400     0.0000000000
 26      1.7564605820     4.5720054890     5.0206281280     0.0000000000    -0.0001532700     0.0000000000
 14      0.0399630800     1.5138517530     2.2445665780     0.0003198600     0.0001783800    -0.0006010300
 14      3.4729578720     1.5138517530     7.7966899790    -0.0003198600     0.0001783800     0.0006010300
 14      3.5659749790     7.6473543470     7.7402111150     0.0000191900     0.0002076400     0.0004824600
 14     -0.0530537200     7.6473543470     2.3010452920    -0.0000191900     0.0002076400    -0.0004824600
 14      2.5794774190     6.1033067670     2.2731760740     0.0000316500     0.0003674700    -0.0004429500
 14      0.9334436650     6.1033067670     7.7680806340    -0.0000316500     0.0003674700     0.0004429500
 13      0.8376284660     3.0521262270     7.7823976830    -0.0002042600    -0.0003477300     0.0004835200
 13      2.6752927240     3.0521262270     2.2588584220     0.0002042600    -0.0003477300    -0.0004835200
  8     -0.0150772350     1.5014995010     3.8744328390     0.0000146000     0.0001399800    -0.0005518600
  8      3.5279982670     1.5014995010     6.1668228140    -0.0000146000     0.0001399800     0.0005518600
  8      3.5372076460     7.6293558870     6.1240703280     0.0000117800    -0.0001000100     0.0001921000
  8     -0.0242863510     7.6293558870     3.9171856260    -0.0000117800    -0.0001000100    -0.0001921000
  8      2.6250328270     6.1172114650     3.9013279910    -0.0001329500     0.0000057700    -0.0004147300
  8      0.8878883370     6.1172114650     6.1399282650     0.0001329500     0.0000057700     0.0004147300
  8      0.8622752180     3.0934534320     6.0484796630     0.0001154500    -0.0000275200     0.0000337900
  8      2.6506457360     3.0934534320     3.9927768840    -0.0001154500    -0.0000275200    -0.0000337900
  8      1.5214228110     1.8534351750     1.6692647590     0.0001985900    -0.0005377700     0.0005114500
  8      1.9914982470     1.8534351750     8.3719911950    -0.0001985900    -0.0005377700    -0.0005114500
  8      4.9414584680     9.1428987430     1.6881608320    -0.0005232000     0.0002006800     0.0006652400
  8     -1.4285371930     9.1428987430     8.3530952730     0.0005232000     0.0002006800    -0.0006652400
  8      2.1173898580     7.1292851880     8.3444900040    -0.0001447100     0.0002422000    -0.0005424400
  8      1.3955314110     7.1292851880     1.6967665530     0.0001447100     0.0002422000     0.0005424400
  8      4.0248099300     6.6902502160     1.6832748140     0.0000705900    -0.0004739700     0.0004943600
  8     -0.5118887660     6.6902502160     8.3579814420    -0.0000705900    -0.0004739700    -0.0004943600
  8      2.3072335190     4.6583715480     1.6055832090    -0.0005515900    -0.0001282200     0.0007670300
  8      1.2056877770     4.6583715480     8.4356731970     0.0005515900    -0.0001282200    -0.0007670300
  8     -0.7223045320     2.5468876620     8.4302003500    -0.0005404600     0.0004345600    -0.0004894000
  8      4.2352256160     2.5468876620     1.6110559060     0.0005404600     0.0004345600     0.0004894000
  8      0.0375061830     4.6037289280     3.9666083490    -0.0001200200     0.0001287700     0.0009616400
  8      3.4754148800     4.6037289280     6.0746476050     0.0001200200     0.0001287700    -0.0009616400
  8      2.6337360100     9.1652300280     3.9828519170    -0.0000050000    -0.0000636800     0.0004372500
  8      0.8791852590     9.1652300280     6.0584046400     0.0000050000    -0.0000636800    -0.0004372500
  1      0.1350229280     4.5055116920     3.0088176170     0.0005704600    -0.0006561000    -0.0005457800
  1      3.3778980770     4.5055116920     7.0324386390    -0.0005704600    -0.0006561000     0.0005457800
  1      2.6101721310     0.1343995090     3.0274211320    -0.0000702700     0.0004327500    -0.0000865300
  1      0.9027491910     0.1343995090     7.0138351240     0.0000702700     0.0004327500     0.0000865300
 CONVCOORD
          44           1
 19      0.0000000000     4.5450059840     0.0000000000
 19      2.6376859600     0.0255048940     0.0000000000
 12     -0.8812253790     0.0306294760     5.0206281280
 12     -0.8812253790     3.0650353020     5.0206281280
 12     -0.8812253790     6.0746553250     5.0206281280
 12      1.7564605820     7.6392329430     5.0206281280
 12      1.7564605820     1.5926468170     5.0206281280
 26      1.7564605820     4.5720054890     5.0206281280
 14      0.0399630800     1.5138517530     2.2445665780
 14      3.4729578720     1.5138517530     7.7966899790
 14      3.5659749790     7.6473543470     7.7402111150
 14     -0.0530537200     7.6473543470     2.3010452920
 14      2.5794774190     6.1033067670     2.2731760740
 14      0.9334436650     6.1033067670     7.7680806340
 13      0.8376284660     3.0521262270     7.7823976830
 13      2.6752927240     3.0521262270     2.2588584220
  8     -0.0150772350     1.5014995010     3.8744328390
  8      3.5279982670     1.5014995010     6.1668228140
  8      3.5372076460     7.6293558870     6.1240703280
  8     -0.0242863510     7.6293558870     3.9171856260
  8      2.6250328270     6.1172114650     3.9013279910
  8      0.8878883370     6.1172114650     6.1399282650
  8      0.8622752180     3.0934534320     6.0484796630
  8      2.6506457360     3.0934534320     3.9927768840
  8      1.5214228110     1.8534351750     1.6692647590
  8      1.9914982470     1.8534351750     8.3719911950
  8      4.9414584680     9.1428987430     1.6881608320
  8     -1.4285371930     9.1428987430     8.3530952730
  8      2.1173898580     7.1292851880     8.3444900040
  8      1.3955314110     7.1292851880     1.6967665530
  8      4.0248099300     6.6902502160     1.6832748140
  8     -0.5118887660     6.6902502160     8.3579814420
  8      2.3072335190     4.6583715480     1.6055832090
  8      1.2056877770     4.6583715480     8.4356731970
  8     -0.7223045320     2.5468876620     8.4302003500
  8      4.2352256160     2.5468876620     1.6110559060
  8      0.0375061830     4.6037289280     3.9666083490
  8      3.4754148800     4.6037289280     6.0746476050
  8      2.6337360100     9.1652300280     3.9828519170
  8      0.8791852590     9.1652300280     6.0584046400
  1      0.1350229280     4.5055116920     3.0088176170
  1      3.3778980770     4.5055116920     7.0324386390
  1      2.6101721310     0.1343995090     3.0274211320
  1      0.9027491910     0.1343995090     7.0138351240
 RECIP-PRIMVEC
    0.1895600871   -0.0000000000    0.0332717847

    0.0000000000    0.1090620323   -0.0000000000

    0.0000000000    0.0000000000    0.0995891477

 RECIP-CONVVEC
    0.1895600871   -0.0000000000    0.0332717847

    0.0000000000    0.1090620323   -0.0000000000

    0.0000000000    0.0000000000    0.0995891477

 WIGNER-SEITZ-PRIMCELL
           4
 -0.2637686E+01  0.4584547E+01 -0.4712332E+01  -0.3302233E+00  0.0000000E+00 -0.9439029E+00
 -0.8752345E+00  0.4584547E+01 -0.5328923E+01  -0.3302233E+00  0.0000000E+00 -0.9439029E+00
 -0.8752345E+00 -0.4584547E+01 -0.5328923E+01  -0.3302233E+00  0.0000000E+00 -0.9439029E+00
 -0.2637686E+01 -0.4584547E+01 -0.4712332E+01  -0.3302233E+00  0.0000000E+00 -0.9439029E+00
           4
 -0.2637686E+01  0.4584547E+01  0.4712332E+01  -0.1000000E+01 -0.0000000E+00 -0.0000000E+00
 -0.2637686E+01  0.4584547E+01 -0.4712332E+01  -0.1000000E+01 -0.0000000E+00 -0.0000000E+00
 -0.2637686E+01 -0.4584547E+01 -0.4712332E+01  -0.1000000E+01 -0.0000000E+00 -0.0000000E+00
 -0.2637686E+01 -0.4584547E+01  0.4712332E+01  -0.1000000E+01 -0.0000000E+00 -0.0000000E+00
           6
  0.2637686E+01 -0.4584547E+01  0.4712332E+01  -0.0000000E+00 -0.1000000E+01 -0.5461093E-15
  0.8752345E+00 -0.4584547E+01  0.5328923E+01  -0.0000000E+00 -0.1000000E+01 -0.5461093E-15
 -0.2637686E+01 -0.4584547E+01  0.4712332E+01  -0.0000000E+00 -0.1000000E+01 -0.5461093E-15
 -0.2637686E+01 -0.4584547E+01 -0.4712332E+01  -0.0000000E+00 -0.1000000E+01 -0.5461093E-15
 -0.8752345E+00 -0.4584547E+01 -0.5328923E+01  -0.0000000E+00 -0.1000000E+01 -0.5461093E-15
  0.2637686E+01 -0.4584547E+01 -0.4712332E+01  -0.0000000E+00 -0.1000000E+01 -0.5461093E-15
           4
  0.2637686E+01  0.4584547E+01 -0.4712332E+01   0.1728783E+00  0.0000000E+00 -0.9849432E+00
  0.2637686E+01 -0.4584547E+01 -0.4712332E+01   0.1728783E+00  0.0000000E+00 -0.9849432E+00
 -0.8752345E+00 -0.4584547E+01 -0.5328923E+01   0.1728783E+00  0.0000000E+00 -0.9849432E+00
 -0.8752345E+00  0.4584547E+01 -0.5328923E+01   0.1728783E+00  0.0000000E+00 -0.9849432E+00
           4
  0.8752345E+00  0.4584547E+01  0.5328923E+01  -0.1728783E+00  0.1796671E-18  0.9849432E+00
 -0.2637686E+01  0.4584547E+01  0.4712332E+01  -0.1728783E+00  0.1796671E-18  0.9849432E+00
 -0.2637686E+01 -0.4584547E+01  0.4712332E+01  -0.1728783E+00  0.1796671E-18  0.9849432E+00
  0.8752345E+00 -0.4584547E+01  0.5328923E+01  -0.1728783E+00  0.1796671E-18  0.9849432E+00
           6
  0.2637686E+01  0.4584547E+01 -0.4712332E+01   0.1683632E-15  0.1000000E+01  0.5461093E-15
 -0.8752345E+00  0.4584547E+01 -0.5328923E+01   0.1683632E-15  0.1000000E+01  0.5461093E-15
 -0.2637686E+01  0.4584547E+01 -0.4712332E+01   0.1683632E-15  0.1000000E+01  0.5461093E-15
 -0.2637686E+01  0.4584547E+01  0.4712332E+01   0.1683632E-15  0.1000000E+01  0.5461093E-15
  0.8752345E+00  0.4584547E+01  0.5328923E+01   0.1683632E-15  0.1000000E+01  0.5461093E-15
  0.2637686E+01  0.4584547E+01  0.4712332E+01   0.1683632E-15  0.1000000E+01  0.5461093E-15
           4
  0.2637686E+01  0.4584547E+01  0.4712332E+01   0.1000000E+01  0.0000000E+00  0.0000000E+00
  0.2637686E+01 -0.4584547E+01  0.4712332E+01   0.1000000E+01  0.0000000E+00  0.0000000E+00
  0.2637686E+01 -0.4584547E+01 -0.4712332E+01   0.1000000E+01  0.0000000E+00  0.0000000E+00
  0.2637686E+01  0.4584547E+01 -0.4712332E+01   0.1000000E+01  0.0000000E+00  0.0000000E+00
           4
  0.2637686E+01 -0.4584547E+01  0.4712332E+01   0.3302233E+00  0.1037562E-15  0.9439029E+00
  0.2637686E+01  0.4584547E+01  0.4712332E+01   0.3302233E+00  0.1037562E-15  0.9439029E+00
  0.8752345E+00  0.4584547E+01  0.5328923E+01   0.3302233E+00  0.1037562E-15  0.9439029E+00
  0.8752345E+00 -0.4584547E+01  0.5328923E+01   0.3302233E+00  0.1037562E-15  0.9439029E+00
 WIGNER-SEITZ-PRIMCELL_END
 WIGNER-SEITZ-CONVCELL
           4
 -0.2637686E+01  0.4584547E+01 -0.4712332E+01  -0.3302233E+00  0.0000000E+00 -0.9439029E+00
 -0.8752345E+00  0.4584547E+01 -0.5328923E+01  -0.3302233E+00  0.0000000E+00 -0.9439029E+00
 -0.8752345E+00 -0.4584547E+01 -0.5328923E+01  -0.3302233E+00  0.0000000E+00 -0.9439029E+00
 -0.2637686E+01 -0.4584547E+01 -0.4712332E+01  -0.3302233E+00  0.0000000E+00 -0.9439029E+00
           4
 -0.2637686E+01  0.4584547E+01  0.4712332E+01  -0.1000000E+01 -0.0000000E+00 -0.0000000E+00
 -0.2637686E+01  0.4584547E+01 -0.4712332E+01  -0.1000000E+01 -0.0000000E+00 -0.0000000E+00
 -0.2637686E+01 -0.4584547E+01 -0.4712332E+01  -0.1000000E+01 -0.0000000E+00 -0.0000000E+00
 -0.2637686E+01 -0.4584547E+01  0.4712332E+01  -0.1000000E+01 -0.0000000E+00 -0.0000000E+00
           6
  0.2637686E+01 -0.4584547E+01  0.4712332E+01  -0.0000000E+00 -0.1000000E+01 -0.5461093E-15
  0.8752345E+00 -0.4584547E+01  0.5328923E+01  -0.0000000E+00 -0.1000000E+01 -0.5461093E-15
 -0.2637686E+01 -0.4584547E+01  0.4712332E+01  -0.0000000E+00 -0.1000000E+01 -0.5461093E-15
 -0.2637686E+01 -0.4584547E+01 -0.4712332E+01  -0.0000000E+00 -0.1000000E+01 -0.5461093E-15
 -0.8752345E+00 -0.4584547E+01 -0.5328923E+01  -0.0000000E+00 -0.1000000E+01 -0.5461093E-15
  0.2637686E+01 -0.4584547E+01 -0.4712332E+01  -0.0000000E+00 -0.1000000E+01 -0.5461093E-15
           4
  0.2637686E+01  0.4584547E+01 -0.4712332E+01   0.1728783E+00  0.0000000E+00 -0.9849432E+00
  0.2637686E+01 -0.4584547E+01 -0.4712332E+01   0.1728783E+00  0.0000000E+00 -0.9849432E+00
 -0.8752345E+00 -0.4584547E+01 -0.5328923E+01   0.1728783E+00  0.0000000E+00 -0.9849432E+00
 -0.8752345E+00  0.4584547E+01 -0.5328923E+01   0.1728783E+00  0.0000000E+00 -0.9849432E+00
           4
  0.8752345E+00  0.4584547E+01  0.5328923E+01  -0.1728783E+00  0.1796671E-18  0.9849432E+00
 -0.2637686E+01  0.4584547E+01  0.4712332E+01  -0.1728783E+00  0.1796671E-18  0.9849432E+00
 -0.2637686E+01 -0.4584547E+01  0.4712332E+01  -0.1728783E+00  0.1796671E-18  0.9849432E+00
  0.8752345E+00 -0.4584547E+01  0.5328923E+01  -0.1728783E+00  0.1796671E-18  0.9849432E+00
           6
  0.2637686E+01  0.4584547E+01 -0.4712332E+01   0.1683632E-15  0.1000000E+01  0.5461093E-15
 -0.8752345E+00  0.4584547E+01 -0.5328923E+01   0.1683632E-15  0.1000000E+01  0.5461093E-15
 -0.2637686E+01  0.4584547E+01 -0.4712332E+01   0.1683632E-15  0.1000000E+01  0.5461093E-15
 -0.2637686E+01  0.4584547E+01  0.4712332E+01   0.1683632E-15  0.1000000E+01  0.5461093E-15
  0.8752345E+00  0.4584547E+01  0.5328923E+01   0.1683632E-15  0.1000000E+01  0.5461093E-15
  0.2637686E+01  0.4584547E+01  0.4712332E+01   0.1683632E-15  0.1000000E+01  0.5461093E-15
           4
  0.2637686E+01  0.4584547E+01  0.4712332E+01   0.1000000E+01  0.0000000E+00  0.0000000E+00
  0.2637686E+01 -0.4584547E+01  0.4712332E+01   0.1000000E+01  0.0000000E+00  0.0000000E+00
  0.2637686E+01 -0.4584547E+01 -0.4712332E+01   0.1000000E+01  0.0000000E+00  0.0000000E+00
  0.2637686E+01  0.4584547E+01 -0.4712332E+01   0.1000000E+01  0.0000000E+00  0.0000000E+00
           4
  0.2637686E+01 -0.4584547E+01  0.4712332E+01   0.3302233E+00  0.1037562E-15  0.9439029E+00
  0.2637686E+01  0.4584547E+01  0.4712332E+01   0.3302233E+00  0.1037562E-15  0.9439029E+00
  0.8752345E+00  0.4584547E+01  0.5328923E+01   0.3302233E+00  0.1037562E-15  0.9439029E+00
  0.8752345E+00 -0.4584547E+01  0.5328923E+01   0.3302233E+00  0.1037562E-15  0.9439029E+00
 WIGNER-SEITZ-CONVCELL_END
 BRILLOUIN-ZONE-PRIMCELL
           4
  0.1006001E+00  0.5453102E-01 -0.1652279E-01   0.9439029E+00  0.0000000E+00 -0.3302233E+00
  0.1006001E+00 -0.5453102E-01 -0.1652279E-01   0.9439029E+00  0.0000000E+00 -0.3302233E+00
  0.8896000E-01 -0.5453102E-01 -0.4979457E-01   0.9439029E+00  0.0000000E+00 -0.3302233E+00
  0.8896000E-01  0.5453102E-01 -0.4979457E-01   0.9439029E+00  0.0000000E+00 -0.3302233E+00
           4
 -0.8896000E-01  0.5453102E-01 -0.4979457E-01  -0.4469942E-16 -0.8939885E-16 -0.1000000E+01
  0.8896000E-01  0.5453102E-01 -0.4979457E-01  -0.4469942E-16 -0.8939885E-16 -0.1000000E+01
  0.8896000E-01 -0.5453102E-01 -0.4979457E-01  -0.4469942E-16 -0.8939885E-16 -0.1000000E+01
 -0.8896000E-01 -0.5453102E-01 -0.4979457E-01  -0.4469942E-16 -0.8939885E-16 -0.1000000E+01
           6
  0.8896000E-01 -0.5453102E-01  0.4979457E-01   0.0000000E+00 -0.1000000E+01  0.8791251E-15
 -0.8896000E-01 -0.5453102E-01  0.4979457E-01   0.0000000E+00 -0.1000000E+01  0.8791251E-15
 -0.1006001E+00 -0.5453102E-01  0.1652279E-01   0.0000000E+00 -0.1000000E+01  0.8791251E-15
 -0.8896000E-01 -0.5453102E-01 -0.4979457E-01   0.0000000E+00 -0.1000000E+01  0.8791251E-15
  0.8896000E-01 -0.5453102E-01 -0.4979457E-01   0.0000000E+00 -0.1000000E+01  0.8791251E-15
  0.1006001E+00 -0.5453102E-01 -0.1652279E-01   0.0000000E+00 -0.1000000E+01  0.8791251E-15
           4
  0.8896000E-01 -0.5453102E-01  0.4979457E-01   0.9849432E+00 -0.8120510E-16  0.1728783E+00
  0.1006001E+00 -0.5453102E-01 -0.1652279E-01   0.9849432E+00 -0.8120510E-16  0.1728783E+00
  0.1006001E+00  0.5453102E-01 -0.1652279E-01   0.9849432E+00 -0.8120510E-16  0.1728783E+00
  0.8896000E-01  0.5453102E-01  0.4979457E-01   0.9849432E+00 -0.8120510E-16  0.1728783E+00
           4
 -0.8896000E-01  0.5453102E-01 -0.4979457E-01  -0.9849432E+00  0.3543495E-15 -0.1728783E+00
 -0.8896000E-01 -0.5453102E-01 -0.4979457E-01  -0.9849432E+00  0.3543495E-15 -0.1728783E+00
 -0.1006001E+00 -0.5453102E-01  0.1652279E-01  -0.9849432E+00  0.3543495E-15 -0.1728783E+00
 -0.1006001E+00  0.5453102E-01  0.1652279E-01  -0.9849432E+00  0.3543495E-15 -0.1728783E+00
           6
  0.1006001E+00  0.5453102E-01 -0.1652279E-01  -0.0000000E+00  0.1000000E+01  0.5860834E-15
  0.8896000E-01  0.5453102E-01 -0.4979457E-01  -0.0000000E+00  0.1000000E+01  0.5860834E-15
 -0.8896000E-01  0.5453102E-01 -0.4979457E-01  -0.0000000E+00  0.1000000E+01  0.5860834E-15
 -0.1006001E+00  0.5453102E-01  0.1652279E-01  -0.0000000E+00  0.1000000E+01  0.5860834E-15
 -0.8896000E-01  0.5453102E-01  0.4979457E-01  -0.0000000E+00  0.1000000E+01  0.5860834E-15
  0.8896000E-01  0.5453102E-01  0.4979457E-01  -0.0000000E+00  0.1000000E+01  0.5860834E-15
           4
  0.8896000E-01 -0.5453102E-01  0.4979457E-01  -0.0000000E+00  0.8939885E-16  0.1000000E+01
  0.8896000E-01  0.5453102E-01  0.4979457E-01  -0.0000000E+00  0.8939885E-16  0.1000000E+01
 -0.8896000E-01  0.5453102E-01  0.4979457E-01  -0.0000000E+00  0.8939885E-16  0.1000000E+01
 -0.8896000E-01 -0.5453102E-01  0.4979457E-01  -0.0000000E+00  0.8939885E-16  0.1000000E+01
           4
 -0.8896000E-01  0.5453102E-01  0.4979457E-01  -0.9439029E+00 -0.7050630E-16  0.3302233E+00
 -0.1006001E+00  0.5453102E-01  0.1652279E-01  -0.9439029E+00 -0.7050630E-16  0.3302233E+00
 -0.1006001E+00 -0.5453102E-01  0.1652279E-01  -0.9439029E+00 -0.7050630E-16  0.3302233E+00
 -0.8896000E-01 -0.5453102E-01  0.4979457E-01  -0.9439029E+00 -0.7050630E-16  0.3302233E+00
 BRILLOUIN-ZONE-PRIMCELL_END
 BRILLOUIN-ZONE-CONVCELL
           4
  0.1006001E+00  0.5453102E-01 -0.1652279E-01   0.9439029E+00  0.0000000E+00 -0.3302233E+00
  0.1006001E+00 -0.5453102E-01 -0.1652279E-01   0.9439029E+00  0.0000000E+00 -0.3302233E+00
  0.8896000E-01 -0.5453102E-01 -0.4979457E-01   0.9439029E+00  0.0000000E+00 -0.3302233E+00
  0.8896000E-01  0.5453102E-01 -0.4979457E-01   0.9439029E+00  0.0000000E+00 -0.3302233E+00
           4
 -0.8896000E-01  0.5453102E-01 -0.4979457E-01  -0.4469942E-16 -0.8939885E-16 -0.1000000E+01
  0.8896000E-01  0.5453102E-01 -0.4979457E-01  -0.4469942E-16 -0.8939885E-16 -0.1000000E+01
  0.8896000E-01 -0.5453102E-01 -0.4979457E-01  -0.4469942E-16 -0.8939885E-16 -0.1000000E+01
 -0.8896000E-01 -0.5453102E-01 -0.4979457E-01  -0.4469942E-16 -0.8939885E-16 -0.1000000E+01
           6
  0.8896000E-01 -0.5453102E-01  0.4979457E-01   0.0000000E+00 -0.1000000E+01  0.8791251E-15
 -0.8896000E-01 -0.5453102E-01  0.4979457E-01   0.0000000E+00 -0.1000000E+01  0.8791251E-15
 -0.1006001E+00 -0.5453102E-01  0.1652279E-01   0.0000000E+00 -0.1000000E+01  0.8791251E-15
 -0.8896000E-01 -0.5453102E-01 -0.4979457E-01   0.0000000E+00 -0.1000000E+01  0.8791251E-15
  0.8896000E-01 -0.5453102E-01 -0.4979457E-01   0.0000000E+00 -0.1000000E+01  0.8791251E-15
  0.1006001E+00 -0.5453102E-01 -0.1652279E-01   0.0000000E+00 -0.1000000E+01  0.8791251E-15
           4
  0.8896000E-01 -0.5453102E-01  0.4979457E-01   0.9849432E+00 -0.8120510E-16  0.1728783E+00
  0.1006001E+00 -0.5453102E-01 -0.1652279E-01   0.9849432E+00 -0.8120510E-16  0.1728783E+00
  0.1006001E+00  0.5453102E-01 -0.1652279E-01   0.9849432E+00 -0.8120510E-16  0.1728783E+00
  0.8896000E-01  0.5453102E-01  0.4979457E-01   0.9849432E+00 -0.8120510E-16  0.1728783E+00
           4
 -0.8896000E-01  0.5453102E-01 -0.4979457E-01  -0.9849432E+00  0.3543495E-15 -0.1728783E+00
 -0.8896000E-01 -0.5453102E-01 -0.4979457E-01  -0.9849432E+00  0.3543495E-15 -0.1728783E+00
 -0.1006001E+00 -0.5453102E-01  0.1652279E-01  -0.9849432E+00  0.3543495E-15 -0.1728783E+00
 -0.1006001E+00  0.5453102E-01  0.1652279E-01  -0.9849432E+00  0.3543495E-15 -0.1728783E+00
           6
  0.1006001E+00  0.5453102E-01 -0.1652279E-01  -0.0000000E+00  0.1000000E+01  0.5860834E-15
  0.8896000E-01  0.5453102E-01 -0.4979457E-01  -0.0000000E+00  0.1000000E+01  0.5860834E-15
 -0.8896000E-01  0.5453102E-01 -0.4979457E-01  -0.0000000E+00  0.1000000E+01  0.5860834E-15
 -0.1006001E+00  0.5453102E-01  0.1652279E-01  -0.0000000E+00  0.1000000E+01  0.5860834E-15
 -0.8896000E-01  0.5453102E-01  0.4979457E-01  -0.0000000E+00  0.1000000E+01  0.5860834E-15
  0.8896000E-01  0.5453102E-01  0.4979457E-01  -0.0000000E+00  0.1000000E+01  0.5860834E-15
           4
  0.8896000E-01 -0.5453102E-01  0.4979457E-01  -0.0000000E+00  0.8939885E-16  0.1000000E+01
  0.8896000E-01  0.5453102E-01  0.4979457E-01  -0.0000000E+00  0.8939885E-16  0.1000000E+01
 -0.8896000E-01  0.5453102E-01  0.4979457E-01  -0.0000000E+00  0.8939885E-16  0.1000000E+01
 -0.8896000E-01 -0.5453102E-01  0.4979457E-01  -0.0000000E+00  0.8939885E-16  0.1000000E+01
           4
 -0.8896000E-01  0.5453102E-01  0.4979457E-01  -0.9439029E+00 -0.7050630E-16  0.3302233E+00
 -0.1006001E+00  0.5453102E-01  0.1652279E-01  -0.9439029E+00 -0.7050630E-16  0.3302233E+00
 -0.1006001E+00 -0.5453102E-01  0.1652279E-01  -0.9439029E+00 -0.7050630E-16  0.3302233E+00
 -0.8896000E-01 -0.5453102E-01  0.4979457E-01  -0.9439029E+00 -0.7050630E-16  0.3302233E+00
 BRILLOUIN-ZONE-CONVCELL_END
 ATOMS
   19    0.0000000000    4.5450059840    0.0000000000    0.0000000000    0.0005044900    0.0000000000
   19    2.6376859600    0.0255048940    0.0000000000    0.0000000000   -0.0004422600    0.0000000000
   12   -0.8812253790    0.0306294760    5.0206281280    0.0000000000    0.0001655000    0.0000000000
   12   -0.8812253790    3.0650353020    5.0206281280    0.0000000000   -0.0002184100    0.0000000000
   12   -0.8812253790    6.0746553250    5.0206281280    0.0000000000   -0.0001281600    0.0000000000
   12    1.7564605820    7.6392329430    5.0206281280    0.0000000000    0.0003577500    0.0000000000
   12    1.7564605820    1.5926468170    5.0206281280    0.0000000000   -0.0000920400    0.0000000000
   26    1.7564605820    4.5720054890    5.0206281280    0.0000000000   -0.0001532700    0.0000000000
   14    0.0399630800    1.5138517530    2.2445665780    0.0003198600    0.0001783800   -0.0006010300
   14    3.4729578720    1.5138517530    7.7966899790   -0.0003198600    0.0001783800    0.0006010300
   14    3.5659749790    7.6473543470    7.7402111150    0.0000191900    0.0002076400    0.0004824600
   14   -0.0530537200    7.6473543470    2.3010452920   -0.0000191900    0.0002076400   -0.0004824600
   14    2.5794774190    6.1033067670    2.2731760740    0.0000316500    0.0003674700   -0.0004429500
   14    0.9334436650    6.1033067670    7.7680806340   -0.0000316500    0.0003674700    0.0004429500
   13    0.8376284660    3.0521262270    7.7823976830   -0.0002042600   -0.0003477300    0.0004835200
   13    2.6752927240    3.0521262270    2.2588584220    0.0002042600   -0.0003477300   -0.0004835200
    8   -0.0150772350    1.5014995010    3.8744328390    0.0000146000    0.0001399800   -0.0005518600
    8    3.5279982670    1.5014995010    6.1668228140   -0.0000146000    0.0001399800    0.0005518600
    8    3.5372076460    7.6293558870    6.1240703280    0.0000117800   -0.0001000100    0.0001921000
    8   -0.0242863510    7.6293558870    3.9171856260   -0.0000117800   -0.0001000100   -0.0001921000
    8    2.6250328270    6.1172114650    3.9013279910   -0.0001329500    0.0000057700   -0.0004147300
    8    0.8878883370    6.1172114650    6.1399282650    0.0001329500    0.0000057700    0.0004147300
    8    0.8622752180    3.0934534320    6.0484796630    0.0001154500   -0.0000275200    0.0000337900
    8    2.6506457360    3.0934534320    3.9927768840   -0.0001154500   -0.0000275200   -0.0000337900
    8    1.5214228110    1.8534351750    1.6692647590    0.0001985900   -0.0005377700    0.0005114500
    8    1.9914982470    1.8534351750    8.3719911950   -0.0001985900   -0.0005377700   -0.0005114500
    8    4.9414584680    9.1428987430    1.6881608320   -0.0005232000    0.0002006800    0.0006652400
    8   -1.4285371930    9.1428987430    8.3530952730    0.0005232000    0.0002006800   -0.0006652400
    8    2.1173898580    7.1292851880    8.3444900040   -0.0001447100    0.0002422000   -0.0005424400
    8    1.3955314110    7.1292851880    1.6967665530    0.0001447100    0.0002422000    0.0005424400
    8    4.0248099300    6.6902502160    1.6832748140    0.0000705900   -0.0004739700    0.0004943600
    8   -0.5118887660    6.6902502160    8.3579814420   -0.0000705900   -0.0004739700   -0.0004943600
    8    2.3072335190    4.6583715480    1.6055832090   -0.0005515900   -0.0001282200    0.0007670300
    8    1.2056877770    4.6583715480    8.4356731970    0.0005515900   -0.0001282200   -0.0007670300
    8   -0.7223045320    2.5468876620    8.4302003500   -0.0005404600    0.0004345600   -0.0004894000
    8    4.2352256160    2.5468876620    1.6110559060    0.0005404600    0.0004345600    0.0004894000
    8    0.0375061830    4.6037289280    3.9666083490   -0.0001200200    0.0001287700    0.0009616400
    8    3.4754148800    4.6037289280    6.0746476050    0.0001200200    0.0001287700   -0.0009616400
    8    2.6337360100    9.1652300280    3.9828519170   -0.0000050000   -0.0000636800    0.0004372500
    8    0.8791852590    9.1652300280    6.0584046400    0.0000050000   -0.0000636800   -0.0004372500
    1    0.1350229280    4.5055116920    3.0088176170    0.0005704600   -0.0006561000   -0.0005457800
    1    3.3778980770    4.5055116920    7.0324386390   -0.0005704600   -0.0006561000    0.0005457800
    1    2.6101721310    0.1343995090    3.0274211320   -0.0000702700    0.0004327500   -0.0000865300
    1    0.9027491910    0.1343995090    7.0138351240    0.0000702700    0.0004327500    0.0000865300
   19   -1.7624515270    4.5450059840   10.0412547220    0.0000000000    0.0005044900    0.0000000000
   19    0.8752344330    0.0255048940   10.0412547220    0.0000000000   -0.0004422600    0.0000000000
   19    5.2753721270    4.5450059840    0.0000000000    0.0000000000    0.0005044900    0.0000000000
   12    4.3941467480    0.0306294760    5.0206281280    0.0000000000    0.0001655000    0.0000000000
   12    4.3941467480    3.0650353020    5.0206281280    0.0000000000   -0.0002184100    0.0000000000
   12    4.3941467480    6.0746553250    5.0206281280    0.0000000000   -0.0001281600    0.0000000000
   19    3.5129206000    4.5450059840   10.0412547220    0.0000000000    0.0005044900    0.0000000000
 FRAMES
1      0.0000000000    0.0000000000    0.0000000000      5.2753721270    0.0000000000    0.0000000000
1      0.0000000000    0.0000000000    0.0000000000      0.0000000000    9.1690937620    0.0000000000
1      0.0000000000    0.0000000000    0.0000000000     -1.7624515270    0.0000000000   10.0412547220
1     -1.7624515270    0.0000000000   10.0412547220      3.5129206000    0.0000000000   10.0412547220
1     -1.7624515270    0.0000000000   10.0412547220     -1.7624515270    9.1690937620   10.0412547220
1      0.0000000000    9.1690937620    0.0000000000      5.2753721270    9.1690937620    0.0000000000
1      0.0000000000    9.1690937620    0.0000000000     -1.7624515270    9.1690937620   10.0412547220
1     -1.7624515270    9.1690937620   10.0412547220      3.5129206000    9.1690937620   10.0412547220
1      5.2753721270    0.0000000000    0.0000000000      5.2753721270    9.1690937620    0.0000000000
1      5.2753721270    0.0000000000    0.0000000000      3.5129206000    0.0000000000   10.0412547220
1      3.5129206000    0.0000000000   10.0412547220      3.5129206000    9.1690937620   10.0412547220
1      5.2753721270    9.1690937620    0.0000000000      3.5129206000    9.1690937620   10.0412547220
